@<TRIPOS>MOLECULE
*****
 58 61 0 0 0
SMALL
GASTEIGER

@<TRIPOS>ATOM
      1  C1       -36.8623   -6.4787   43.2619 C.3     1  LEV1       -0.0473
      2  N1       -37.2613   -6.0443   40.8607 N.3     1  LEV1       -0.2912
      3  O1       -39.7100   -5.7180   42.3627 O.3     1  LEV1       -0.3718
      4  C2       -37.5968   -6.9571   41.9925 C.3     1  LEV1        0.0314
      5  N2       -41.3467   -3.3692   41.9995 N.3     1  LEV1       -0.2920
      6  O2       -36.6013   -3.7737   37.3352 O.3     1  LEV1       -0.3910
      7  C3       -39.1247   -7.0436   42.2432 C.3     1  LEV1        0.0635
      8  N3       -42.9515   -1.6624   43.7275 N.3     1  LEV1       -0.3029
      9  O3       -33.9838   -5.3058   37.3235 O.3     1  LEV1       -0.3668
     10  C4       -39.2395   -4.6767   41.4544 C.3     1  LEV1        0.0927
     11  O4       -35.5860   -6.8561   36.7325 O.3     1  LEV1       -0.3668
     12  C5       -38.4143   -5.2916   40.2964 C.3     1  LEV1        0.0438
     13  C6       -36.4104   -6.6661   39.8186 C.3     1  LEV1        0.0094
     14  C7       -35.8679   -5.5915   38.8479 C.3     1  LEV1        0.0487
     15  C8       -37.0585   -4.8112   38.2107 C.3     1  LEV1        0.0682
     16  C9       -37.9210   -4.1828   39.3351 C.3     1  LEV1        0.0062
     17  C10      -39.1351   -3.3996   38.7742 C.3     1  LEV1       -0.0135
     18  C11      -39.9720   -2.7784   39.9145 C.3     1  LEV1        0.1192
     19  C12      -40.4522   -3.8756   40.9097 C.3     1  LEV1        0.0693
     20  C13      -40.7056   -2.5634   43.0769 C.3     1  LEV1        0.0122
     21  C14      -41.7080   -2.3024   44.2236 C.3     1  LEV1        0.0114
     22  C15      -43.5822   -2.4773   42.6596 C.3     1  LEV1        0.0114
     23  C16      -42.6008   -2.7494   41.4972 C.3     1  LEV1        0.0122
     24  C17      -42.7712   -0.2388   43.3584 C.3     1  LEV1       -0.0127
     25  C18      -34.9033   -6.2598   37.8291 C.3     1  LEV1        0.1595
     26  F1       -39.2353   -1.8328   40.5303 F       1  LEV1       -0.2438
     27  H01      -35.7828   -6.4623   43.0951 H       1  LEV1        0.0245
     28  H02      -37.1803   -5.4722   43.5439 H       1  LEV1        0.0245
     29  H03      -37.0664   -7.1501   44.0989 H       1  LEV1        0.0245
     30  H04      -37.2438   -7.9674   41.7652 H       1  LEV1        0.0482
     31  H05      -36.2970   -3.0200   37.8690 H       1  LEV1        0.2098
     32  H06      -39.6015   -7.5546   41.4021 H       1  LEV1        0.0575
     33  H07      -39.3356   -7.6080   43.1556 H       1  LEV1        0.0575
     34  H08      -33.6410   -4.8370   38.0990 H       1  LEV1        0.2125
     35  H09      -38.5825   -4.0101   42.0199 H       1  LEV1        0.0628
     36  H10      -35.8780   -7.7320   37.0180 H       1  LEV1        0.2125
     37  H11      -39.0531   -5.9807   39.7349 H       1  LEV1        0.0492
     38  H12      -36.9896   -7.4107   39.2645 H       1  LEV1        0.0432
     39  H13      -35.5646   -7.1677   40.2978 H       1  LEV1        0.0432
     40  H14      -35.2810   -4.8869   39.4446 H       1  LEV1        0.0387
     41  H15      -37.6722   -5.5080   37.6328 H       1  LEV1        0.0601
     42  H16      -37.2922   -3.4873   39.8993 H       1  LEV1        0.0343
     43  H17      -39.7645   -4.0670   38.1802 H       1  LEV1        0.0297
     44  H18      -38.7972   -2.5997   38.1112 H       1  LEV1        0.0297
     45  H19      -40.8335   -2.2726   39.4727 H       1  LEV1        0.0668
     46  H20      -41.0505   -4.5825   40.3277 H       1  LEV1        0.0517
     47  H21      -40.3548   -1.6081   42.6807 H       1  LEV1        0.0439
     48  H22      -39.8512   -3.0993   43.4957 H       1  LEV1        0.0439
     49  H23      -41.9638   -3.2606   44.6854 H       1  LEV1        0.0439
     50  H24      -41.2413   -1.6731   44.9863 H       1  LEV1        0.0439
     51  H25      -44.4736   -1.9703   42.2799 H       1  LEV1        0.0439
     52  H26      -43.8924   -3.4363   43.0844 H       1  LEV1        0.0439
     53  H27      -43.0817   -3.4205   40.7805 H       1  LEV1        0.0439
     54  H28      -42.3747   -1.8071   40.9914 H       1  LEV1        0.0439
     55  H29      -42.0766   -0.1366   42.5206 H       1  LEV1        0.0391
     56  H30      -43.7336    0.1953   43.0750 H       1  LEV1        0.0391
     57  H31      -42.3766    0.3171   44.2133 H       1  LEV1        0.0391
     58  H32      -34.3014   -7.0424   38.3163 H       1  LEV1        0.0909
@<TRIPOS>BOND
     1    11    36    1
     2    11    25    1
     3     6    31    1
     4     6    15    1
     5     9    25    1
     6     9    34    1
     7    41    15    1
     8    25    58    1
     9    25    14    1
    10    44    17    1
    11    43    17    1
    12    15    14    1
    13    15    16    1
    14    17    16    1
    15    17    18    1
    16    14    40    1
    17    14    13    1
    18    45    18    1
    19    16    42    1
    20    16    12    1
    21    38    13    1
    22    18    26    1
    23    18    19    1
    24    37    12    1
    25    13    39    1
    26    13     2    1
    27    46    19    1
    28    12     2    1
    29    12    10    1
    30    53    23    1
    31    19    10    1
    32    19     5    1
    33    54    23    1
    34     2     4    1
    35    23     5    1
    36    23    22    1
    37    10    35    1
    38    10     3    1
    39    32     7    1
    40     5    20    1
    41    30     4    1
    42    51    22    1
    43     4     7    1
    44     4     1    1
    45    22    52    1
    46    22     8    1
    47     7     3    1
    48     7    33    1
    49    47    20    1
    50    56    24    1
    51    55    24    1
    52    20    48    1
    53    20    21    1
    54    27     1    1
    55     1    29    1
    56     1    28    1
    57    24     8    1
    58    24    57    1
    59     8    21    1
    60    21    49    1
    61    21    50    1
