MODEL 1
REMARK VINA RESULT:    -6.074      0.000      0.000
REMARK INTER + INTRA:         -15.468
REMARK INTER:                 -11.577
REMARK INTRA:                  -3.891
REMARK UNBOUND:                -3.891
REMARK  22 active torsions:
REMARK  status: ('A' for Active; 'I' for Inactive)
REMARK    1  A    between atoms: C2_2  and  N6_42 
REMARK    2  A    between atoms: C3_3  and  O13_41 
REMARK    3  A    between atoms: C4_4  and  O5_20 
REMARK    4  A    between atoms: C5_5  and  O1_8 
REMARK    5  A    between atoms: C6_6  and  N1_7 
REMARK    6  A    between atoms: O1_8  and  C7_9 
REMARK    7  A    between atoms: C8_10  and  N3_19 
REMARK    8  A    between atoms: C9_11  and  O4_18 
REMARK    9  A    between atoms: C10_12  and  O3_17 
REMARK   10  A    between atoms: C11_13  and  C12_15 
REMARK   11  A    between atoms: C12_15  and  N2_16 
REMARK   12  A    between atoms: O5_20  and  C13_21 
REMARK   13  A    between atoms: C14_22  and  O12_40 
REMARK   14  A    between atoms: C15_23  and  O8_28 
REMARK   15  A    between atoms: C16_24  and  C17_26 
REMARK   16  A    between atoms: C17_26  and  O7_27 
REMARK   17  A    between atoms: O8_28  and  C18_29 
REMARK   18  A    between atoms: C19_30  and  N5_39 
REMARK   19  A    between atoms: C20_31  and  O11_38 
REMARK   20  A    between atoms: C21_32  and  O10_37 
REMARK   21  A    between atoms: C22_33  and  C23_35 
REMARK   22  A    between atoms: C23_35  and  N4_36 
ROOT
HETATM    1  C1  NEO     1     -20.591 -12.579 -16.273  1.00  0.00     0.076 C 
HETATM    2  C2  NEO     1     -19.550 -12.751 -17.389  1.00  0.00     0.251 C 
HETATM    3  C3  NEO     1     -18.154 -13.032 -16.791  1.00  0.00     0.182 C 
HETATM    4  C4  NEO     1     -18.195 -14.279 -15.883  1.00  0.00     0.186 C 
HETATM    5  C5  NEO     1     -19.228 -14.105 -14.747  1.00  0.00     0.189 C 
HETATM    6  C6  NEO     1     -20.632 -13.812 -15.347  1.00  0.00     0.251 C 
ENDROOT
BRANCH   4   7
HETATM    7  O5  NEO     1     -16.909 -14.472 -15.309  1.00  0.00    -0.348 OA
BRANCH   7   8
HETATM    8  C13 NEO     1     -16.318 -15.690 -15.731  1.00  0.00     0.292 C 
HETATM    9  C14 NEO     1     -15.827 -16.471 -14.522  1.00  0.00     0.205 C 
HETATM   10  C15 NEO     1     -15.885 -17.898 -15.016  1.00  0.00     0.189 C 
HETATM   11  C16 NEO     1     -17.051 -17.832 -16.014  1.00  0.00     0.180 C 
HETATM   12  O6  NEO     1     -17.284 -16.485 -16.382  1.00  0.00    -0.348 OA
BRANCH   9  13
HETATM   13  O12 NEO     1     -14.549 -16.081 -14.074  1.00  0.00    -0.388 OA
HETATM   14  H43 NEO     1     -14.522 -16.139 -13.084  1.00  0.00     0.210 HD
ENDBRANCH   9  13
BRANCH  10  15
HETATM   15  O8  NEO     1     -14.704 -18.227 -15.735  1.00  0.00    -0.348 OA
BRANCH  15  16
HETATM   16  C18 NEO     1     -14.079 -19.379 -15.209  1.00  0.00     0.296 C 
HETATM   17  C19 NEO     1     -13.757 -20.341 -16.378  1.00  0.00     0.303 C 
HETATM   18  C20 NEO     1     -13.173 -21.667 -15.842  1.00  0.00     0.187 C 
HETATM   19  C21 NEO     1     -14.010 -22.220 -14.669  1.00  0.00     0.179 C 
HETATM   20  C22 NEO     1     -14.294 -21.094 -13.645  1.00  0.00     0.183 C 
HETATM   21  O9  NEO     1     -14.949 -20.011 -14.282  1.00  0.00    -0.349 OA
BRANCH  17  22
HETATM   22  N5  NEO     1     -14.936 -20.598 -17.215  1.00  0.00     0.090 N 
HETATM   23  H41 NEO     1     -15.734 -19.995 -16.915  1.00  0.00     0.313 HD
HETATM   24  H42 NEO     1     -14.709 -20.337 -18.203  1.00  0.00     0.313 HD
ENDBRANCH  17  22
BRANCH  18  25
HETATM   25  O11 NEO     1     -11.853 -21.466 -15.407  1.00  0.00    -0.391 OA
HETATM   26  H40 NEO     1     -11.896 -21.260 -14.437  1.00  0.00     0.210 HD
ENDBRANCH  18  25
BRANCH  19  27
HETATM   27  O10 NEO     1     -15.220 -22.756 -15.141  1.00  0.00    -0.390 OA
HETATM   28  H39 NEO     1     -15.758 -21.995 -15.479  1.00  0.00     0.210 HD
ENDBRANCH  19  27
BRANCH  20  29
HETATM   29  C23 NEO     1     -15.181 -21.572 -12.474  1.00  0.00     0.301 C 
BRANCH  29  30
HETATM   30  N4  NEO     1     -16.213 -20.603 -12.114  1.00  0.00     0.080 N 
HETATM   31  H37 NEO     1     -15.847 -19.966 -11.372  1.00  0.00     0.312 HD
HETATM   32  H38 NEO     1     -16.462 -20.027 -12.951  1.00  0.00     0.312 HD
ENDBRANCH  29  30
ENDBRANCH  20  29
ENDBRANCH  15  16
ENDBRANCH  10  15
BRANCH  11  33
HETATM   33  C17 NEO     1     -18.345 -18.447 -15.450  1.00  0.00     0.198 C 
BRANCH  33  34
HETATM   34  O7  NEO     1     -18.063 -19.518 -14.588  1.00  0.00    -0.398 OA
HETATM   35  H29 NEO     1     -17.129 -19.799 -14.771  1.00  0.00     0.209 HD
ENDBRANCH  33  34
ENDBRANCH  11  33
ENDBRANCH   7   8
ENDBRANCH   4   7
BRANCH   3  36
HETATM   36  O13 NEO     1     -17.240 -13.242 -17.839  1.00  0.00    -0.391 OA
HETATM   37  H44 NEO     1     -17.515 -12.653 -18.589  1.00  0.00     0.210 HD
ENDBRANCH   3  36
BRANCH   5  38
HETATM   38  O1  NEO     1     -19.247 -15.321 -14.016  1.00  0.00    -0.349 OA
BRANCH  38  39
HETATM   39  C7  NEO     1     -19.451 -15.142 -12.618  1.00  0.00     0.296 C 
HETATM   40  C8  NEO     1     -18.191 -15.550 -11.834  1.00  0.00     0.303 C 
HETATM   41  C9  NEO     1     -17.942 -17.061 -12.000  1.00  0.00     0.187 C 
HETATM   42  C10 NEO     1     -19.218 -17.866 -11.675  1.00  0.00     0.179 C 
HETATM   43  C11 NEO     1     -20.424 -17.285 -12.457  1.00  0.00     0.183 C 
HETATM   44  O2  NEO     1     -20.568 -15.898 -12.177  1.00  0.00    -0.349 OA
BRANCH  40  45
HETATM   45  N3  NEO     1     -17.033 -14.784 -12.304  1.00  0.00     0.090 N 
HETATM   46  H21 NEO     1     -16.831 -15.061 -13.293  1.00  0.00     0.313 HD
HETATM   47  H22 NEO     1     -17.302 -13.775 -12.341  1.00  0.00     0.313 HD
ENDBRANCH  40  45
BRANCH  41  48
HETATM   48  O4  NEO     1     -16.866 -17.484 -11.197  1.00  0.00    -0.391 OA
HETATM   49  H20 NEO     1     -17.202 -17.575 -10.267  1.00  0.00     0.210 HD
ENDBRANCH  41  48
BRANCH  42  50
HETATM   50  O3  NEO     1     -19.012 -19.208 -12.031  1.00  0.00    -0.390 OA
HETATM   51  H19 NEO     1     -19.581 -19.388 -12.825  1.00  0.00     0.210 HD
ENDBRANCH  42  50
BRANCH  43  52
HETATM   52  C12 NEO     1     -21.755 -17.968 -12.062  1.00  0.00     0.301 C 
BRANCH  52  53
HETATM   53  N2  NEO     1     -21.742 -18.526 -10.709  1.00  0.00     0.080 N 
HETATM   54  H17 NEO     1     -20.758 -18.623 -10.377  1.00  0.00     0.312 HD
HETATM   55  H18 NEO     1     -22.192 -19.470 -10.706  1.00  0.00     0.312 HD
ENDBRANCH  52  53
ENDBRANCH  43  52
ENDBRANCH  38  39
ENDBRANCH   5  38
BRANCH   2  56
HETATM   56  N6  NEO     1     -19.537 -11.549 -18.229  1.00  0.00     0.085 N 
HETATM   57  H45 NEO     1     -18.548 -11.233 -18.366  1.00  0.00     0.313 HD
HETATM   58  H46 NEO     1     -19.923 -11.785 -19.174  1.00  0.00     0.313 HD
ENDBRANCH   2  56
BRANCH   6  59
HETATM   59  N1  NEO     1     -21.622 -13.608 -14.286  1.00  0.00     0.085 N 
HETATM   60  H8  NEO     1     -22.418 -14.272 -14.422  1.00  0.00     0.313 HD
HETATM   61  H9  NEO     1     -21.182 -13.830 -13.362  1.00  0.00     0.313 HD
ENDBRANCH   6  59
TORSDOF 22
ENDMDL
