MODEL 1
REMARK VINA RESULT:    -6.452      0.000      0.000
REMARK INTER + INTRA:         -12.784
REMARK INTER:                 -10.600
REMARK INTRA:                  -2.184
REMARK UNBOUND:                -2.184
REMARK  16 active torsions:
REMARK  status: ('A' for Active; 'I' for Inactive)
REMARK    1  A    between atoms: C2_2  and  N5_32 
REMARK    2  A    between atoms: C3_3  and  O7_21 
REMARK    3  A    between atoms: C4_4  and  O6_20 
REMARK    4  A    between atoms: C5_5  and  O1_8 
REMARK    5  A    between atoms: C6_6  and  N1_7 
REMARK    6  A    between atoms: O1_8  and  C7_9 
REMARK    7  A    between atoms: C8_10  and  O5_19 
REMARK    8  A    between atoms: C9_11  and  N2_18 
REMARK    9  A    between atoms: C10_12  and  O4_17 
REMARK   10  A    between atoms: C11_13  and  C12_15 
REMARK   11  A    between atoms: C12_15  and  O3_16 
REMARK   12  A    between atoms: O7_21  and  C13_22 
REMARK   13  A    between atoms: C14_23  and  N4_31 
REMARK   14  A    between atoms: C16_25  and  O9_30 
REMARK   15  A    between atoms: C17_26  and  C18_28 
REMARK   16  A    between atoms: C18_28  and  N3_29 
ROOT
HETATM    1  C1  TOB     1      26.482 -54.916  -9.532  1.00  0.00     0.076 C 
HETATM    2  C2  TOB     1      27.159 -55.137  -8.158  1.00  0.00     0.251 C 
HETATM    3  C3  TOB     1      28.696 -55.316  -8.256  1.00  0.00     0.189 C 
HETATM    4  C4  TOB     1      29.364 -54.230  -9.129  1.00  0.00     0.180 C 
HETATM    5  C5  TOB     1      28.726 -54.124 -10.543  1.00  0.00     0.189 C 
HETATM    6  C6  TOB     1      27.193 -53.931 -10.493  1.00  0.00     0.251 C 
ENDROOT
BRANCH   5   7
HETATM    7  O1  TOB     1      28.993 -55.296 -11.299  1.00  0.00    -0.348 OA
BRANCH   7   8
HETATM    8  C7  TOB     1      30.060 -55.132 -12.224  1.00  0.00     0.291 C 
HETATM    9  C8  TOB     1      29.502 -54.517 -13.532  1.00  0.00     0.208 C 
HETATM   10  C9  TOB     1      30.438 -54.787 -14.746  1.00  0.00     0.282 C 
HETATM   11  C10 TOB     1      31.859 -55.135 -14.271  1.00  0.00     0.184 C 
HETATM   12  C11 TOB     1      31.787 -56.352 -13.304  1.00  0.00     0.179 C 
HETATM   13  O2  TOB     1      30.621 -56.405 -12.484  1.00  0.00    -0.349 OA
BRANCH   9  14
HETATM   14  O5  TOB     1      28.204 -54.985 -13.808  1.00  0.00    -0.388 OA
HETATM   15  H21 TOB     1      27.793 -54.361 -14.463  1.00  0.00     0.210 HD
ENDBRANCH   9  14
BRANCH  10  16
HETATM   16  N2  TOB     1      30.468 -53.642 -15.660  1.00  0.00     0.088 N 
HETATM   17  H19 TOB     1      29.486 -53.419 -15.946  1.00  0.00     0.313 HD
HETATM   18  H20 TOB     1      30.847 -52.806 -15.158  1.00  0.00     0.313 HD
ENDBRANCH  10  16
BRANCH  11  19
HETATM   19  O4  TOB     1      32.674 -55.461 -15.369  1.00  0.00    -0.391 OA
HETATM   20  H18 TOB     1      33.525 -55.819 -15.004  1.00  0.00     0.210 HD
ENDBRANCH  11  19
BRANCH  12  21
HETATM   21  C12 TOB     1      33.054 -56.508 -12.448  1.00  0.00     0.198 C 
BRANCH  21  22
HETATM   22  O3  TOB     1      34.215 -56.310 -13.211  1.00  0.00    -0.398 OA
HETATM   23  H17 TOB     1      34.437 -55.343 -13.158  1.00  0.00     0.209 HD
ENDBRANCH  21  22
ENDBRANCH  12  21
ENDBRANCH   7   8
ENDBRANCH   5   7
BRANCH   4  24
HETATM   24  O6  TOB     1      29.337 -52.991  -8.469  1.00  0.00    -0.390 OA
HETATM   25  H22 TOB     1      29.979 -53.051  -7.714  1.00  0.00     0.210 HD
ENDBRANCH   4  24
BRANCH   6  26
HETATM   26  N1  TOB     1      26.824 -52.530 -10.261  1.00  0.00     0.085 N 
HETATM   27  H8  TOB     1      26.427 -52.124 -11.139  1.00  0.00     0.313 HD
HETATM   28  H9  TOB     1      26.106 -52.441  -9.514  1.00  0.00     0.313 HD
ENDBRANCH   6  26
BRANCH   3  29
HETATM   29  O7  TOB     1      29.016 -56.585  -8.816  1.00  0.00    -0.349 OA
BRANCH  29  30
HETATM   30  C13 TOB     1      30.027 -57.278  -8.096  1.00  0.00     0.293 C 
HETATM   31  C14 TOB     1      31.085 -57.823  -9.087  1.00  0.00     0.275 C 
HETATM   32  C15 TOB     1      31.871 -59.008  -8.472  1.00  0.00     0.074 C 
HETATM   33  C16 TOB     1      31.821 -58.978  -6.939  1.00  0.00     0.151 C 
HETATM   34  C17 TOB     1      30.336 -58.953  -6.462  1.00  0.00     0.181 C 
HETATM   35  O8  TOB     1      29.440 -58.365  -7.403  1.00  0.00    -0.349 OA
BRANCH  31  36
HETATM   36  N4  TOB     1      30.463 -58.220 -10.353  1.00  0.00     0.087 N 
HETATM   37  H34 TOB     1      31.157 -58.089 -11.125  1.00  0.00     0.313 HD
HETATM   38  H35 TOB     1      30.212 -59.235 -10.317  1.00  0.00     0.313 HD
ENDBRANCH  31  36
BRANCH  33  39
HETATM   39  O9  TOB     1      32.468 -60.113  -6.422  1.00  0.00    -0.393 OA
HETATM   40  H33 TOB     1      32.671 -60.705  -7.193  1.00  0.00     0.210 HD
ENDBRANCH  33  39
BRANCH  34  41
HETATM   41  C18 TOB     1      30.160 -58.275  -5.084  1.00  0.00     0.301 C 
BRANCH  41  42
HETATM   42  N3  TOB     1      31.437 -57.911  -4.471  1.00  0.00     0.080 N 
HETATM   43  H31 TOB     1      32.011 -57.371  -5.157  1.00  0.00     0.312 HD
HETATM   44  H32 TOB     1      31.259 -57.302  -3.640  1.00  0.00     0.312 HD
ENDBRANCH  41  42
ENDBRANCH  34  41
ENDBRANCH  29  30
ENDBRANCH   3  29
BRANCH   2  45
HETATM   45  N5  TOB     1      26.794 -54.117  -7.167  1.00  0.00     0.085 N 
HETATM   46  H36 TOB     1      25.798 -53.838  -7.258  1.00  0.00     0.313 HD
HETATM   47  H37 TOB     1      26.921 -54.514  -6.208  1.00  0.00     0.313 HD
ENDBRANCH   2  45
TORSDOF 16
ENDMDL
