MODEL 1
REMARK VINA RESULT:    -7.275      0.000      0.000
REMARK INTER + INTRA:          -9.351
REMARK INTER:                  -8.763
REMARK INTRA:                  -0.588
REMARK UNBOUND:                -0.588
REMARK  5 active torsions:
REMARK  status: ('A' for Active; 'I' for Inactive)
REMARK    1  A    between atoms: C7_9  and  C18_24 
REMARK    2  A    between atoms: C8_10  and  O2_11 
REMARK    3  A    between atoms: C12_15  and  N2_16 
REMARK    4  A    between atoms: C18_24  and  O3_25 
REMARK    5  A    between atoms: C18_24  and  O4_26 
ROOT
HETATM    1  C1  LEV     1     -37.122  -6.820  43.268  1.00  0.00     0.045 C 
HETATM    2  C2  LEV     1     -37.820  -7.095  41.935  1.00  0.00     0.243 C 
HETATM    3  C3  LEV     1     -39.358  -6.972  42.094  1.00  0.00     0.203 C 
HETATM    4  O1  LEV     1     -39.788  -5.635  42.277  1.00  0.00    -0.379 OA
HETATM    5  C4  LEV     1     -39.219  -4.715  41.348  1.00  0.00     0.191 C 
HETATM    6  C5  LEV     1     -38.322  -5.361  40.257  1.00  0.00     0.261 C 
HETATM    7  N1  LEV     1     -37.273  -6.163  40.911  1.00  0.00     0.103 N 
HETATM    8  C6  LEV     1     -36.455  -6.873  39.906  1.00  0.00     0.285 C 
HETATM    9  C7  LEV     1     -35.741  -5.864  38.981  1.00  0.00     0.098 C 
HETATM   10  C8  LEV     1     -36.776  -4.926  38.305  1.00  0.00     0.135 C 
HETATM   11  C9  LEV     1     -37.689  -4.268  39.368  1.00  0.00     0.054 C 
HETATM   12  C10 LEV     1     -38.796  -3.412  38.709  1.00  0.00     0.049 C 
HETATM   13  C11 LEV     1     -39.719  -2.785  39.766  1.00  0.00     0.206 C 
HETATM   14  C12 LEV     1     -40.337  -3.889  40.671  1.00  0.00     0.287 C 
HETATM   15  F1  LEV     1     -38.975  -1.879  40.505  1.00  0.00    -0.247 F 
ENDROOT
BRANCH  14  16
HETATM   16  N2  LEV     1     -41.334  -3.403  41.666  1.00  0.00     0.102 N 
HETATM   17  C13 LEV     1     -40.777  -2.834  42.906  1.00  0.00     0.303 C 
HETATM   18  C14 LEV     1     -41.907  -2.618  43.922  1.00  0.00     0.302 C 
HETATM   19  N3  LEV     1     -42.990  -1.767  43.385  1.00  0.00     0.087 N 
HETATM   20  C15 LEV     1     -43.467  -2.239  42.068  1.00  0.00     0.302 C 
HETATM   21  C17 LEV     1     -42.633  -0.338  43.372  1.00  0.00     0.310 C 
HETATM   22  C16 LEV     1     -42.319  -2.478  41.076  1.00  0.00     0.303 C 
ENDBRANCH  14  16
BRANCH  10  23
HETATM   23  O2  LEV     1     -36.133  -3.945  37.528  1.00  0.00    -0.395 OA
HETATM   24  H6  LEV     1     -36.084  -4.283  36.596  1.00  0.00     0.210 HD
ENDBRANCH  10  23
BRANCH   9  25
HETATM   25  C18 LEV     1     -34.858  -6.583  37.931  1.00  0.00     0.262 C 
BRANCH  25  26
HETATM   26  O3  LEV     1     -33.822  -5.736  37.509  1.00  0.00    -0.371 OA
HETATM   27  H12 LEV     1     -33.167  -5.700  38.254  1.00  0.00     0.212 HD
ENDBRANCH  25  26
BRANCH  25  28
HETATM   28  O4  LEV     1     -35.630  -6.959  36.819  1.00  0.00    -0.371 OA
HETATM   29  H20 LEV     1     -35.009  -7.024  36.047  1.00  0.00     0.212 HD
ENDBRANCH  25  28
ENDBRANCH   9  25
TORSDOF 5
ENDMDL
