MODEL 1
REMARK VINA RESULT:    -8.240      0.000      0.000
REMARK INTER + INTRA:         -17.576
REMARK INTER:                 -14.502
REMARK INTRA:                  -3.074
REMARK UNBOUND:                -3.074
REMARK  17 active torsions:
REMARK  status: ('A' for Active; 'I' for Inactive)
REMARK    1  A    between atoms: C3_3  and  C21_38 
REMARK    2  A    between atoms: C3_3  and  O12_40 
REMARK    3  A    between atoms: C4_4  and  O6_25 
REMARK    4  A    between atoms: C5_5  and  O2_7 
REMARK    5  A    between atoms: O2_7  and  C6_8 
REMARK    6  A    between atoms: C7_9  and  N4_21 
REMARK    7  A    between atoms: C8_10  and  O5_20 
REMARK    8  A    between atoms: C9_11  and  N1_16 
REMARK    9  A    between atoms: C10_12  and  O4_15 
REMARK   10  A    between atoms: C11_13  and  O3_14 
REMARK       I    between atoms: N1_16  and  C12_17 
REMARK       I    between atoms: C12_17  and  N2_18 
REMARK       I    between atoms: C12_17  and  N3_19 
REMARK       I    between atoms: N4_21  and  C13_22 
REMARK       I    between atoms: C13_22  and  N5_23 
REMARK       I    between atoms: C13_22  and  N6_24 
REMARK   11  A    between atoms: O6_25  and  C14_26 
REMARK   12  A    between atoms: C15_27  and  N7_36 
REMARK   13  A    between atoms: C16_28  and  O10_35 
REMARK   14  A    between atoms: C17_29  and  O9_34 
REMARK   15  A    between atoms: C18_30  and  C19_32 
REMARK   16  A    between atoms: C19_32  and  O8_33 
REMARK   17  A    between atoms: C21_38  and  O11_39 
ROOT
HETATM    1  C6  STM     1      14.743  20.572 -18.097  1.00  0.00     0.192 C 
HETATM    2  C7  STM     1      14.073  21.969 -18.210  1.00  0.00     0.287 C 
HETATM    3  C8  STM     1      13.080  22.030 -19.403  1.00  0.00     0.190 C 
HETATM    4  C9  STM     1      12.023  20.892 -19.289  1.00  0.00     0.287 C 
HETATM    5  C10 STM     1      12.682  19.497 -19.143  1.00  0.00     0.185 C 
HETATM    6  C11 STM     1      13.658  19.477 -17.947  1.00  0.00     0.180 C 
ENDROOT
BRANCH   1   7
HETATM    7  O2  STM     1      15.597  20.582 -16.960  1.00  0.00    -0.348 OA
BRANCH   7   8
HETATM    8  C5  STM     1      14.926  20.227 -15.757  1.00  0.00     0.293 C 
HETATM    9  C4  STM     1      15.749  19.184 -15.000  1.00  0.00     0.218 C 
HETATM   10  C3  STM     1      16.619  20.027 -14.059  1.00  0.00     0.135 C 
HETATM   11  C2  STM     1      15.956  21.435 -14.137  1.00  0.00     0.160 C 
HETATM   12  C1  STM     1      15.552  22.027 -12.782  1.00  0.00     0.043 C 
HETATM   13  O1  STM     1      14.806  21.364 -14.943  1.00  0.00    -0.350 OA
BRANCH   9  14
HETATM   14  O6  STM     1      14.882  18.338 -14.253  1.00  0.00    -0.346 OA
BRANCH  14  15
HETATM   15  C14 STM     1      14.941  16.982 -14.691  1.00  0.00     0.297 C 
HETATM   16  C15 STM     1      15.862  16.153 -13.745  1.00  0.00     0.305 C 
HETATM   17  C16 STM     1      15.659  14.622 -13.932  1.00  0.00     0.187 C 
HETATM   18  C17 STM     1      14.891  14.321 -15.241  1.00  0.00     0.180 C 
HETATM   19  C18 STM     1      13.571  15.160 -15.320  1.00  0.00     0.179 C 
HETATM   20  O7  STM     1      13.635  16.441 -14.684  1.00  0.00    -0.349 OA
BRANCH  16  21
HETATM   21  N7  STM     1      15.754  16.533 -12.310  1.00  0.00     0.091 N 
HETATM   22  C20 STM     1      16.940  16.226 -11.492  1.00  0.00     0.307 C 
HETATM   23  H34 STM     1      14.936  16.038 -11.890  1.00  0.00     0.316 HD
ENDBRANCH  16  21
BRANCH  17  24
HETATM   24  O10 STM     1      16.914  13.988 -13.954  1.00  0.00    -0.391 OA
HETATM   25  H33 STM     1      17.060  13.665 -14.880  1.00  0.00     0.210 HD
ENDBRANCH  17  24
BRANCH  18  26
HETATM   26  O9  STM     1      14.612  12.948 -15.370  1.00  0.00    -0.390 OA
HETATM   27  H32 STM     1      13.732  12.852 -15.810  1.00  0.00     0.210 HD
ENDBRANCH  18  26
BRANCH  19  28
HETATM   28  C19 STM     1      13.098  15.321 -16.776  1.00  0.00     0.198 C 
BRANCH  28  29
HETATM   29  O8  STM     1      13.891  14.547 -17.635  1.00  0.00    -0.398 OA
HETATM   30  H31 STM     1      14.722  14.312 -17.138  1.00  0.00     0.209 HD
ENDBRANCH  28  29
ENDBRANCH  19  28
ENDBRANCH  14  15
ENDBRANCH   9  14
BRANCH  10  31
HETATM   31  C21 STM     1      18.095  20.070 -14.541  1.00  0.00     0.207 C 
BRANCH  31  32
HETATM   32  O11 STM     1      18.239  20.883 -15.674  1.00  0.00    -0.398 OA
HETATM   33  H6  STM     1      17.346  20.894 -16.116  1.00  0.00     0.209 HD
ENDBRANCH  31  32
ENDBRANCH  10  31
BRANCH  10  34
HETATM   34  O12 STM     1      16.577  19.473 -12.758  1.00  0.00    -0.382 OA
HETATM   35  H39 STM     1      15.738  18.959 -12.664  1.00  0.00     0.210 HD
ENDBRANCH  10  34
ENDBRANCH   7   8
ENDBRANCH   1   7
BRANCH   2  36
HETATM   36  N4  STM     1      15.064  23.076 -18.197  1.00  0.00     0.156 N 
HETATM   37  C13 STM     1      14.742  24.249 -17.363  1.00  0.00     0.674 C 
HETATM   38  N5  STM     1      15.538  25.393 -17.822  1.00  0.00     0.142 N 
HETATM   39  N6  STM     1      15.029  23.974 -15.949  1.00  0.00     0.142 N 
HETATM   40  H20 STM     1      15.176  26.260 -17.355  1.00  0.00     0.318 HD
HETATM   41  H21 STM     1      15.380  25.520 -18.849  1.00  0.00     0.318 HD
HETATM   42  H22 STM     1      14.258  24.391 -15.363  1.00  0.00     0.318 HD
HETATM   43  H23 STM     1      15.923  24.437 -15.649  1.00  0.00     0.318 HD
HETATM   44  H3  STM     1      16.003  22.704 -17.917  1.00  0.00     0.321 HD
ENDBRANCH   2  36
BRANCH   6  45
HETATM   45  O3  STM     1      14.269  18.214 -17.882  1.00  0.00    -0.390 OA
HETATM   46  H13 STM     1      13.540  17.544 -17.893  1.00  0.00     0.210 HD
ENDBRANCH   6  45
BRANCH   3  47
HETATM   47  O5  STM     1      12.445  23.285 -19.449  1.00  0.00    -0.391 OA
HETATM   48  H19 STM     1      12.672  23.715 -20.316  1.00  0.00     0.210 HD
ENDBRANCH   3  47
BRANCH   5  49
HETATM   49  O4  STM     1      11.700  18.514 -18.936  1.00  0.00    -0.391 OA
HETATM   50  H14 STM     1      11.282  18.323 -19.820  1.00  0.00     0.210 HD
ENDBRANCH   5  49
BRANCH   4  51
HETATM   51  N1  STM     1      10.989  20.895 -20.355  1.00  0.00     0.156 N 
HETATM   52  C12 STM     1       9.573  21.159 -20.012  1.00  0.00     0.674 C 
HETATM   53  N2  STM     1       9.435  22.318 -19.130  1.00  0.00     0.142 N 
HETATM   54  N3  STM     1       8.945  19.986 -19.407  1.00  0.00     0.142 N 
HETATM   55  H15 STM     1       8.416  22.455 -18.916  1.00  0.00     0.318 HD
HETATM   56  H16 STM     1       9.720  23.173 -19.665  1.00  0.00     0.318 HD
HETATM   57  H17 STM     1       7.930  20.187 -19.277  1.00  0.00     0.318 HD
HETATM   58  H18 STM     1       8.985  19.202 -20.099  1.00  0.00     0.318 HD
HETATM   59  H1  STM     1      11.051  20.007 -20.903  1.00  0.00     0.321 HD
ENDBRANCH   4  51
TORSDOF 17
ENDMDL
