REMARK  10 active torsions:
REMARK  status: ('A' for Active; 'I' for Inactive)
REMARK    1  A    between atoms: N_5  and  C_13 
REMARK    2  A    between atoms: N_6  and  C_21 
REMARK    3  A    between atoms: N_7  and  C_18 
REMARK       I    between atoms: N_7  and  C_24 
REMARK    4  A    between atoms: C_13  and  C_15 
REMARK    5  A    between atoms: C_15  and  C_16 
REMARK    6  A    between atoms: C_16  and  C_17 
REMARK    7  A    between atoms: C_17  and  C_24 
REMARK    8  A    between atoms: C_17  and  C_25 
REMARK    9  A    between atoms: C_21  and  C_28 
REMARK   10  A    between atoms: C_25  and  C_30 
ROOT
HETATM    1  O   MK1     0      11.726  -0.318   0.000  0.00  0.00    -0.221 OA
HETATM    2  C   MK1     0      12.204   1.146   0.000  0.00  0.00     0.178 C 
ENDROOT
BRANCH   2   3
HETATM    3  C   MK1     0      13.711   1.464   0.000  0.00  0.00     0.135 C 
BRANCH   3   4
HETATM    4  N   MK1     0      14.739   0.318   0.000  0.00  0.00    -0.339 N 
HETATM    5  C   MK1     0      16.246   0.635   0.000  0.00  0.00     0.123 A 
HETATM    6  C   MK1     0      17.275  -0.511   0.000  0.00  0.00     0.108 A 
HETATM    7  C   MK1     0      16.725   2.099   0.000  0.00  0.00     0.227 A 
HETATM    8  N   MK1     0      16.796  -1.975   0.000  0.00  0.00    -0.339 N 
HETATM    9  C   MK1     0      18.114   0.242   0.000  0.00  0.00    -0.089 A 
HETATM   10  C   MK1     0      15.289  -2.292   0.000  0.00  0.00     0.126 A 
HETATM   11  C   MK1     0      14.261  -1.146   0.000  0.00  0.00     0.126 A 
HETATM   12  C   MK1     0      19.260   1.270   0.000  0.00  0.00     0.134 A 
HETATM   13  N   MK1     0      18.232   2.417   0.000  0.00  0.00    -0.237 NA
HETATM   14  C   MK1     0      20.407   2.299   0.000  0.00  0.00     0.037 C 
HETATM   15  C   MK1     0      20.289   0.124   0.000  0.00  0.00     0.037 C 
HETATM   16  O   MK1     0      15.696   3.245   0.000  0.00  0.00    -0.168 OA
BRANCH   8  17
HETATM   17  C   MK1     0      17.825  -3.121   0.000  0.00  0.00     0.104 C 
BRANCH  17  18
HETATM   18  C   MK1     0      17.347  -4.585   0.000  0.00  0.00     0.046 A 
HETATM   19  C   MK1     0      15.840  -4.903   0.000  0.00  0.00     0.006 A 
HETATM   20  C   MK1     0      15.361  -6.366   0.000  0.00  0.00     0.026 A 
HETATM   21  C   MK1     0      16.390  -7.513   0.000  0.00  0.00     0.120 A 
HETATM   22  N   MK1     0      17.897  -7.195   0.000  0.00  0.00    -0.295 NA
HETATM   23  C   MK1     0      18.375  -5.731   0.000  0.00  0.00     0.122 A 
ENDBRANCH  17  18
ENDBRANCH   8  17
ENDBRANCH   3   4
ENDBRANCH   2   3
BRANCH   2  24
HETATM   24  C   MK1     0      11.176   2.292   0.000  0.00  0.00     0.061 C 
BRANCH  24  25
HETATM   25  C   MK1     0       9.669   1.975   0.000  0.00  0.00     0.002 C 
BRANCH  25  26
HETATM   26  C   MK1     0       9.190   0.511   0.000  0.00  0.00     0.205 C 
HETATM   27  O   MK1     0      10.219  -0.635   0.000  0.00  0.00    -0.170 OA
HETATM   28  N   MK1     0       7.683   0.193   0.000  0.00  0.00    -0.219 NA
BRANCH  28  29
HETATM   29  C   MK1     0       7.205  -1.270   0.000  0.00  0.00     0.100 A 
HETATM   30  C   MK1     0       8.104  -2.510   0.000  0.00  0.00     0.130 A 
HETATM   31  O   MK1     0       9.644  -2.510   0.000  0.00  0.00    -0.193 OA
HETATM   32  C   MK1     0       7.205  -3.749   0.000  0.00  0.00     0.077 A 
HETATM   33  C   MK1     0       5.748  -3.280   0.000  0.00  0.00    -0.040 A 
HETATM   34  C   MK1     0       5.748  -1.740   0.000  0.00  0.00    -0.010 A 
HETATM   35  C   MK1     0       4.414  -4.050   0.000  0.00  0.00     0.022 A 
HETATM   36  C   MK1     0       4.414  -0.970   0.000  0.00  0.00     0.027 A 
HETATM   37  C   MK1     0       3.080  -1.740   0.000  0.00  0.00     0.005 A 
HETATM   38  C   MK1     0       3.080  -3.280   0.000  0.00  0.00     0.005 A 
ENDBRANCH  28  29
ENDBRANCH  25  26
BRANCH  25  39
HETATM   39  C   MK1     0       8.640   3.121   0.000  0.00  0.00     0.026 C 
BRANCH  39  40
HETATM   40  C   MK1     0       9.118   4.585   0.000  0.00  0.00     0.004 A 
HETATM   41  C   MK1     0       8.090   5.731   0.000  0.00  0.00     0.000 A 
HETATM   42  C   MK1     0       8.568   7.195   0.000  0.00  0.00     0.000 A 
HETATM   43  C   MK1     0      10.075   7.513   0.000  0.00  0.00     0.000 A 
HETATM   44  C   MK1     0      11.104   6.366   0.000  0.00  0.00     0.000 A 
HETATM   45  C   MK1     0      10.625   4.903   0.000  0.00  0.00     0.000 A 
ENDBRANCH  39  40
ENDBRANCH  25  39
ENDBRANCH  24  25
ENDBRANCH   2  24
TORSDOF 10
