MODEL 1
REMARK VINA RESULT:    -6.730      0.000      0.000
REMARK INTER + INTRA:          -8.682
REMARK INTER:                  -8.107
REMARK INTRA:                  -0.575
REMARK UNBOUND:                -0.575
REMARK  5 active torsions:
REMARK  status: ('A' for Active; 'I' for Inactive)
REMARK    1  A    between atoms: C7_9  and  C18_24 
REMARK    2  A    between atoms: C8_10  and  O2_11 
REMARK    3  A    between atoms: C12_15  and  N2_16 
REMARK    4  A    between atoms: C18_24  and  O3_25 
REMARK    5  A    between atoms: C18_24  and  O4_26 
ROOT
HETATM    1  C1  LEV     1     -28.328  -8.599  -6.528  1.00  0.00     0.045 C 
HETATM    2  C2  LEV     1     -27.650  -7.244  -6.740  1.00  0.00     0.243 C 
HETATM    3  C3  LEV     1     -26.921  -7.213  -8.109  1.00  0.00     0.203 C 
HETATM    4  O1  LEV     1     -27.814  -7.168  -9.208  1.00  0.00    -0.379 OA
HETATM    5  C4  LEV     1     -28.847  -6.195  -9.072  1.00  0.00     0.191 C 
HETATM    6  C5  LEV     1     -28.741  -5.306  -7.802  1.00  0.00     0.261 C 
HETATM    7  N1  LEV     1     -28.677  -6.174  -6.612  1.00  0.00     0.103 N 
HETATM    8  C6  LEV     1     -28.480  -5.369  -5.389  1.00  0.00     0.285 C 
HETATM    9  C7  LEV     1     -29.668  -4.404  -5.181  1.00  0.00     0.098 C 
HETATM   10  C8  LEV     1     -29.852  -3.499  -6.428  1.00  0.00     0.135 C 
HETATM   11  C9  LEV     1     -29.958  -4.357  -7.712  1.00  0.00     0.054 C 
HETATM   12  C10 LEV     1     -30.035  -3.471  -8.977  1.00  0.00     0.049 C 
HETATM   13  C11 LEV     1     -30.108  -4.327 -10.253  1.00  0.00     0.206 C 
HETATM   14  C12 LEV     1     -28.892  -5.294 -10.328  1.00  0.00     0.287 C 
HETATM   15  F1  LEV     1     -31.309  -5.018 -10.240  1.00  0.00    -0.247 F 
ENDROOT
BRANCH  14  16
HETATM   16  N2  LEV     1     -28.804  -6.098 -11.579  1.00  0.00     0.102 N 
HETATM   17  C13 LEV     1     -29.662  -7.295 -11.633  1.00  0.00     0.303 C 
HETATM   18  C14 LEV     1     -29.278  -8.145 -12.852  1.00  0.00     0.302 C 
HETATM   19  N3  LEV     1     -29.349  -7.380 -14.115  1.00  0.00     0.087 N 
HETATM   20  C15 LEV     1     -28.610  -6.102 -14.034  1.00  0.00     0.302 C 
HETATM   21  C17 LEV     1     -30.731  -7.199 -14.590  1.00  0.00     0.310 C 
HETATM   22  C16 LEV     1     -28.988  -5.281 -12.792  1.00  0.00     0.303 C 
ENDBRANCH  14  16
BRANCH  10  23
HETATM   23  O2  LEV     1     -30.986  -2.676  -6.288  1.00  0.00    -0.395 OA
HETATM   24  H6  LEV     1     -30.869  -1.898  -6.893  1.00  0.00     0.210 HD
ENDBRANCH  10  23
BRANCH   9  25
HETATM   25  C18 LEV     1     -29.497  -3.564  -3.891  1.00  0.00     0.262 C 
BRANCH  25  26
HETATM   26  O3  LEV     1     -30.719  -3.469  -3.210  1.00  0.00    -0.371 OA
HETATM   27  H12 LEV     1     -31.430  -3.499  -3.903  1.00  0.00     0.212 HD
ENDBRANCH  25  26
BRANCH  25  28
HETATM   28  O4  LEV     1     -29.041  -2.272  -4.206  1.00  0.00    -0.371 OA
HETATM   29  H20 LEV     1     -28.607  -2.330  -5.097  1.00  0.00     0.212 HD
ENDBRANCH  25  28
ENDBRANCH   9  25
TORSDOF 5
ENDMDL
