MODEL 1
REMARK VINA RESULT:    -6.152      0.000      0.000
REMARK INTER + INTRA:         -14.027
REMARK INTER:                 -10.288
REMARK INTRA:                  -3.739
REMARK UNBOUND:                -3.739
REMARK  16 active torsions:
REMARK  status: ('A' for Active; 'I' for Inactive)
REMARK    1  A    between atoms: C3_3  and  C20_33 
REMARK    2  A    between atoms: C5_7  and  N2_10 
REMARK    3  A    between atoms: C6_8  and  O1_9 
REMARK    4  A    between atoms: N2_10  and  C7_11 
REMARK    5  A    between atoms: C7_11  and  O2_12 
REMARK    6  A    between atoms: C7_11  and  C8_13 
REMARK    7  A    between atoms: C8_13  and  C9_14 
REMARK    8  A    between atoms: C8_13  and  N3_20 
REMARK    9  A    between atoms: N3_20  and  C15_21 
REMARK   10  A    between atoms: C15_21  and  O3_22 
REMARK   11  A    between atoms: C15_21  and  N4_23 
REMARK   12  A    between atoms: C18_27  and  O4_28 
REMARK   13  A    between atoms: S2_29  and  O5_30 
REMARK   14  A    between atoms: S2_29  and  O6_31 
REMARK   15  A    between atoms: C20_33  and  O7_34 
REMARK   16  A    between atoms: C20_33  and  O8_35 
ROOT
HETATM    1  C8  MEZ     1      33.812 -59.177  -8.227  1.00  0.00     0.288 C 
ENDROOT
BRANCH   1   2
HETATM    2  C7  MEZ     1      33.938 -57.885  -9.110  1.00  0.00     0.388 C 
BRANCH   2   3
HETATM    3  N2  MEZ     1      32.682 -57.571  -9.819  1.00  0.00     0.126 N 
HETATM    4  H7  MEZ     1      32.262 -58.442 -10.218  1.00  0.00     0.320 HD
BRANCH   3   5
HETATM    5  C5  MEZ     1      32.793 -56.490 -10.821  1.00  0.00     0.325 A 
HETATM    6  C4  MEZ     1      31.714 -56.442 -11.912  1.00  0.00     0.326 A 
HETATM    7  N1  MEZ     1      31.099 -55.221 -11.375  1.00  0.00     0.146 N 
HETATM    8  S1  MEZ     1      30.519 -57.819 -12.011  1.00  0.00    -0.119 SA
HETATM    9  C3  MEZ     1      29.726 -55.530 -10.909  1.00  0.00     0.299 C 
HETATM   10  C6  MEZ     1      32.167 -55.184 -10.346  1.00  0.00     0.395 A 
HETATM   11  C2  MEZ     1      29.152 -56.648 -11.821  1.00  0.00     0.039 C 
HETATM   12  C1  MEZ     1      28.747 -56.149 -13.223  1.00  0.00     0.029 C 
HETATM   13  C21 MEZ     1      27.973 -57.399 -11.173  1.00  0.00     0.029 C 
BRANCH   9  14
HETATM   14  C20 MEZ     1      28.903 -54.216 -10.890  1.00  0.00     0.289 C 
BRANCH  14  15
HETATM   15  O7  MEZ     1      29.451 -53.296 -11.800  1.00  0.00    -0.369 OA
HETATM   16  H18 MEZ     1      30.198 -52.843 -11.330  1.00  0.00     0.212 HD
ENDBRANCH  14  15
BRANCH  14  17
HETATM   17  O8  MEZ     1      28.871 -53.648  -9.606  1.00  0.00    -0.369 OA
HETATM   18  H22 MEZ     1      29.134 -54.361  -8.966  1.00  0.00     0.212 HD
ENDBRANCH  14  17
ENDBRANCH   9  14
BRANCH  10  19
HETATM   19  O1  MEZ     1      31.711 -55.232  -9.016  1.00  0.00    -0.366 OA
HETATM   20  H2  MEZ     1      31.341 -56.142  -8.882  1.00  0.00     0.212 HD
ENDBRANCH  10  19
ENDBRANCH   3   5
ENDBRANCH   2   3
BRANCH   2  21
HETATM   21  O2  MEZ     1      34.379 -56.771  -8.368  1.00  0.00    -0.366 OA
HETATM   22  H4  MEZ     1      34.549 -57.066  -7.436  1.00  0.00     0.212 HD
ENDBRANCH   2  21
ENDBRANCH   1   2
BRANCH   1  23
HETATM   23  C9  MEZ     1      35.164 -59.880  -7.882  1.00  0.00     0.023 C 
HETATM   24  C10 MEZ     1      36.192 -59.891  -9.033  1.00  0.00     0.007 C 
HETATM   25  C11 MEZ     1      37.356 -60.859  -8.733  1.00  0.00     0.000 C 
HETATM   26  C12 MEZ     1      37.687 -60.972  -7.230  1.00  0.00     0.000 C 
HETATM   27  C13 MEZ     1      37.322 -59.692  -6.466  1.00  0.00     0.000 C 
HETATM   28  C14 MEZ     1      35.814 -59.375  -6.563  1.00  0.00     0.007 C 
ENDBRANCH   1  23
BRANCH   1  29
HETATM   29  N3  MEZ     1      33.112 -58.889  -6.951  1.00  0.00     0.152 N 
HETATM   30  H14 MEZ     1      32.871 -57.878  -6.831  1.00  0.00     0.322 HD
BRANCH  29  31
HETATM   31  C15 MEZ     1      31.894 -59.696  -6.766  1.00  0.00     0.600 C 
BRANCH  31  32
HETATM   32  O3  MEZ     1      31.304 -59.943  -8.020  1.00  0.00    -0.345 OA
HETATM   33  H12 MEZ     1      31.981 -59.731  -8.713  1.00  0.00     0.214 HD
ENDBRANCH  31  32
BRANCH  31  34
HETATM   34  N4  MEZ     1      30.937 -58.944  -5.927  1.00  0.00     0.198 N 
HETATM   35  C16 MEZ     1      29.609 -59.545  -5.897  1.00  0.00     0.304 C 
HETATM   36  C17 MEZ     1      28.664 -58.402  -5.596  1.00  0.00     0.168 C 
HETATM   37  N5  MEZ     1      29.375 -57.165  -5.890  1.00  0.00    -0.280 N 
HETATM   38  C18 MEZ     1      30.703 -57.554  -6.351  1.00  0.00     0.480 C 
HETATM   39  S2  MEZ     1      28.453 -56.080  -5.766  1.00  0.00     0.045 S 
HETATM   40  C19 MEZ     1      29.662 -55.335  -3.909  1.00  0.00     0.150 C 
BRANCH  38  41
HETATM   41  O4  MEZ     1      30.743 -57.418  -7.751  1.00  0.00    -0.352 OA
HETATM   42  H14 MEZ     1      30.249 -56.587  -7.977  1.00  0.00     0.214 HD
ENDBRANCH  38  41
BRANCH  39  43
HETATM   43  O5  MEZ     1      29.834 -54.195  -6.948  1.00  0.00    -0.312 OA
HETATM   44  H15 MEZ     1      30.689 -54.101  -6.457  1.00  0.00     0.230 HD
ENDBRANCH  39  43
BRANCH  39  45
HETATM   45  O6  MEZ     1      28.023 -55.509  -7.385  1.00  0.00    -0.312 OA
HETATM   46  H16 MEZ     1      28.445 -54.695  -7.757  1.00  0.00     0.230 HD
ENDBRANCH  39  45
ENDBRANCH  31  34
ENDBRANCH  29  31
ENDBRANCH   1  29
TORSDOF 16
ENDMDL
