MODEL 1
REMARK VINA RESULT:    -5.589      0.000      0.000
REMARK INTER + INTRA:          -7.255
REMARK INTER:                  -6.733
REMARK INTRA:                  -0.523
REMARK UNBOUND:                -0.523
REMARK  5 active torsions:
REMARK  status: ('A' for Active; 'I' for Inactive)
REMARK    1  A    between atoms: C2_2  and  N1_3 
REMARK    2  A    between atoms: C4_5  and  C12_15 
REMARK    3  A    between atoms: C5_6  and  O1_7 
REMARK    4  A    between atoms: C12_15  and  O2_16 
REMARK    5  A    between atoms: C12_15  and  O3_17 
ROOT
HETATM    1  N1  NDX     1      29.177 -56.237  -7.160  1.00  0.00     0.122 N 
HETATM    2  C3  NDX     1      29.328 -57.504  -6.416  1.00  0.00     0.287 C 
HETATM    3  C4  NDX     1      30.270 -58.455  -7.175  1.00  0.00     0.098 C 
HETATM    4  C5  NDX     1      29.678 -58.744  -8.577  1.00  0.00     0.136 C 
HETATM    5  C6  NDX     1      29.397 -57.427  -9.341  1.00  0.00     0.079 C 
HETATM    6  C7  NDX     1      28.545 -56.451  -8.488  1.00  0.00     0.460 C 
HETATM    7  N2  NDX     1      28.395 -55.161  -9.197  1.00  0.00     0.122 N 
HETATM    8  C8  NDX     1      28.106 -55.259 -10.646  1.00  0.00     0.219 C 
HETATM    9  C9  NDX     1      27.660 -56.666 -11.081  1.00  0.00     0.036 C 
HETATM   10  C10 NDX     1      28.719 -57.713 -10.707  1.00  0.00     0.013 C 
HETATM   11  C11 NDX     1      27.037 -54.227 -11.009  1.00  0.00     0.042 C 
HETATM   12  H7  NDX     1      29.282 -54.613  -9.087  1.00  0.00     0.319 HD
ENDROOT
BRANCH   3  13
HETATM   13  C12 NDX     1      30.534 -59.739  -6.344  1.00  0.00     0.262 C 
BRANCH  13  14
HETATM   14  O2  NDX     1      29.438 -60.619  -6.400  1.00  0.00    -0.371 OA
HETATM   15  H12 NDX     1      29.795 -61.539  -6.505  1.00  0.00     0.212 HD
ENDBRANCH  13  14
BRANCH  13  16
HETATM   16  O3  NDX     1      31.703 -60.393  -6.774  1.00  0.00    -0.371 OA
HETATM   17  H12 NDX     1      31.424 -61.280  -7.122  1.00  0.00     0.212 HD
ENDBRANCH  13  16
ENDBRANCH   3  13
BRANCH   4  18
HETATM   18  O1  NDX     1      30.532 -59.574  -9.328  1.00  0.00    -0.394 OA
HETATM   19  H4  NDX     1      30.347 -60.513  -9.061  1.00  0.00     0.210 HD
ENDBRANCH   4  18
BRANCH   1  20
HETATM   20  C2  NDX     1      28.517 -55.193  -6.334  1.00  0.00     0.271 C 
HETATM   21  C1  NDX     1      27.816 -55.723  -5.076  1.00  0.00     0.037 C 
ENDBRANCH   1  20
TORSDOF 5
ENDMDL
