MODEL 1
REMARK VINA RESULT:    -6.162      0.000      0.000
REMARK INTER + INTRA:          -8.450
REMARK INTER:                  -7.783
REMARK INTRA:                  -0.667
REMARK UNBOUND:                -0.667
REMARK  6 active torsions:
REMARK  status: ('A' for Active; 'I' for Inactive)
REMARK    1  A    between atoms: C2_2  and  N1_3 
REMARK    2  A    between atoms: C4_5  and  C16_21 
REMARK    3  A    between atoms: C5_6  and  O1_7 
REMARK    4  A    between atoms: C9_11  and  N2_14 
REMARK    5  A    between atoms: C16_21  and  O2_22 
REMARK    6  A    between atoms: C16_21  and  O3_23 
ROOT
HETATM    1  N1  NOR     1     -17.343 -16.270 -14.842  1.00  0.00     0.093 N 
HETATM    2  C3  NOR     1     -17.643 -17.036 -13.601  1.00  0.00     0.284 C 
HETATM    3  C4  NOR     1     -18.035 -16.166 -12.371  1.00  0.00     0.098 C 
HETATM    4  C5  NOR     1     -19.116 -15.081 -12.695  1.00  0.00     0.135 C 
HETATM    5  C6  NOR     1     -19.407 -14.999 -14.206  1.00  0.00     0.051 C 
HETATM    6  C7  NOR     1     -20.347 -13.813 -14.575  1.00  0.00     0.049 C 
HETATM    7  C8  NOR     1     -19.650 -12.690 -15.365  1.00  0.00     0.204 C 
HETATM    8  C9  NOR     1     -18.847 -13.198 -16.601  1.00  0.00     0.258 C 
HETATM    9  C10 NOR     1     -18.349 -14.664 -16.450  1.00  0.00     0.075 C 
HETATM   10  C11 NOR     1     -18.062 -14.978 -14.972  1.00  0.00     0.231 C 
HETATM   11  F1  NOR     1     -20.577 -11.727 -15.732  1.00  0.00    -0.247 F 
ENDROOT
BRANCH   8  12
HETATM   12  N2  NOR     1     -19.538 -12.918 -17.892  1.00  0.00     0.099 N 
HETATM   13  C12 NOR     1     -18.705 -12.113 -18.807  1.00  0.00     0.302 C 
HETATM   14  C13 NOR     1     -19.540 -11.666 -20.013  1.00  0.00     0.299 C 
HETATM   15  N3  NOR     1     -20.117 -12.820 -20.715  1.00  0.00     0.086 N 
HETATM   16  C14 NOR     1     -20.915 -13.643 -19.797  1.00  0.00     0.299 C 
HETATM   17  H13 NOR     1     -19.338 -13.404 -21.101  1.00  0.00     0.315 HD
HETATM   18  C15 NOR     1     -20.080 -14.100 -18.594  1.00  0.00     0.302 C 
ENDBRANCH   8  12
BRANCH   1  19
HETATM   19  C2  NOR     1     -15.889 -16.154 -15.096  1.00  0.00     0.268 C 
HETATM   20  C1  NOR     1     -15.387 -17.416 -15.787  1.00  0.00     0.037 C 
ENDBRANCH   1  19
BRANCH   4  21
HETATM   21  O1  NOR     1     -20.310 -15.377 -12.016  1.00  0.00    -0.395 OA
HETATM   22  H4  NOR     1     -20.842 -14.539 -11.994  1.00  0.00     0.210 HD
ENDBRANCH   4  21
BRANCH   3  23
HETATM   23  C16 NOR     1     -16.801 -15.581 -11.637  1.00  0.00     0.262 C 
BRANCH  23  24
HETATM   24  O2  NOR     1     -16.865 -15.893 -10.269  1.00  0.00    -0.371 OA
HETATM   25  H12 NOR     1     -17.787 -16.217 -10.091  1.00  0.00     0.212 HD
ENDBRANCH  23  24
BRANCH  23  26
HETATM   26  O3  NOR     1     -16.752 -14.188 -11.784  1.00  0.00    -0.371 OA
HETATM   27  H18 NOR     1     -16.115 -14.005 -12.524  1.00  0.00     0.212 HD
ENDBRANCH  23  26
ENDBRANCH   3  23
TORSDOF 6
ENDMDL
