MODEL 1
REMARK VINA RESULT:    -5.822      0.000      0.000
REMARK INTER + INTRA:          -8.917
REMARK INTER:                  -8.205
REMARK INTRA:                  -0.712
REMARK UNBOUND:                -0.712
REMARK  9 active torsions:
REMARK  status: ('A' for Active; 'I' for Inactive)
REMARK    1  A    between atoms: C3_3  and  C15_20 
REMARK    2  A    between atoms: C5_7  and  N2_10 
REMARK    3  A    between atoms: C6_8  and  O1_9 
REMARK    4  A    between atoms: N2_10  and  C7_11 
REMARK    5  A    between atoms: C7_11  and  O2_12 
REMARK    6  A    between atoms: C7_11  and  C8_13 
REMARK    7  A    between atoms: C8_13  and  C9_14 
REMARK    8  A    between atoms: C15_20  and  O3_21 
REMARK    9  A    between atoms: C15_20  and  O4_22 
ROOT
HETATM    1  C1  PEN     1     -53.161  26.407  33.377  1.00  0.00     0.029 C 
HETATM    2  C2  PEN     1     -53.191  26.709  31.861  1.00  0.00     0.039 C 
HETATM    3  C3  PEN     1     -54.226  27.802  31.391  1.00  0.00     0.299 C 
HETATM    4  N1  PEN     1     -55.071  27.308  30.282  1.00  0.00     0.146 N 
HETATM    5  C4  PEN     1     -54.904  25.878  30.021  1.00  0.00     0.326 A 
HETATM    6  S1  PEN     1     -53.583  25.141  31.031  1.00  0.00    -0.119 SA
HETATM    7  C5  PEN     1     -54.561  26.101  28.544  1.00  0.00     0.325 A 
HETATM    8  C6  PEN     1     -54.656  27.590  28.890  1.00  0.00     0.395 A 
HETATM    9  C16 PEN     1     -51.762  27.121  31.452  1.00  0.00     0.029 C 
ENDROOT
BRANCH   7  10
HETATM   10  N2  PEN     1     -53.233  25.601  28.127  1.00  0.00     0.124 N 
HETATM   11  H7  PEN     1     -52.645  26.373  27.744  1.00  0.00     0.320 HD
BRANCH  10  12
HETATM   12  C7  PEN     1     -53.352  24.523  27.128  1.00  0.00     0.354 C 
BRANCH  12  13
HETATM   13  O2  PEN     1     -52.251  24.565  26.254  1.00  0.00    -0.368 OA
HETATM   14  H4  PEN     1     -51.569  25.148  26.681  1.00  0.00     0.212 HD
ENDBRANCH  12  13
BRANCH  12  15
HETATM   15  C8  PEN     1     -53.365  23.161  27.845  1.00  0.00     0.068 C 
BRANCH  15  16
HETATM   16  C9  PEN     1     -54.745  22.465  27.809  1.00  0.00    -0.010 C 
HETATM   17  C10 PEN     1     -55.275  22.255  29.240  1.00  0.00     0.005 C 
HETATM   18  C11 PEN     1     -56.589  21.447  29.252  1.00  0.00     0.000 C 
HETATM   19  C12 PEN     1     -57.445  21.647  27.985  1.00  0.00     0.000 C 
HETATM   20  C13 PEN     1     -57.236  23.037  27.379  1.00  0.00     0.000 C 
HETATM   21  C14 PEN     1     -55.771  23.259  26.953  1.00  0.00     0.005 C 
ENDBRANCH  15  16
ENDBRANCH  12  15
ENDBRANCH  10  12
ENDBRANCH   7  10
BRANCH   8  22
HETATM   22  O1  PEN     1     -53.434  28.278  28.791  1.00  0.00    -0.366 OA
HETATM   23  H2  PEN     1     -53.633  29.228  28.997  1.00  0.00     0.212 HD
ENDBRANCH   8  22
BRANCH   3  24
HETATM   24  C15 PEN     1     -55.194  28.364  32.460  1.00  0.00     0.289 C 
BRANCH  24  25
HETATM   25  O3  PEN     1     -55.881  29.485  31.968  1.00  0.00    -0.369 OA
HETATM   26  H12 PEN     1     -56.734  29.154  31.584  1.00  0.00     0.212 HD
ENDBRANCH  24  25
BRANCH  24  27
HETATM   27  O4  PEN     1     -56.098  27.377  32.884  1.00  0.00    -0.369 OA
HETATM   28  H15 PEN     1     -56.975  27.597  32.475  1.00  0.00     0.212 HD
ENDBRANCH  24  27
ENDBRANCH   3  24
TORSDOF 9
ENDMDL
