MODEL 1
REMARK VINA RESULT:    -6.775      0.000      0.000
REMARK INTER + INTRA:         -15.595
REMARK INTER:                 -11.925
REMARK INTRA:                  -3.670
REMARK UNBOUND:                -3.670
REMARK  17 active torsions:
REMARK  status: ('A' for Active; 'I' for Inactive)
REMARK    1  A    between atoms: C3_3  and  C21_38 
REMARK    2  A    between atoms: C3_3  and  O12_40 
REMARK    3  A    between atoms: C4_4  and  O6_25 
REMARK    4  A    between atoms: C5_5  and  O2_7 
REMARK    5  A    between atoms: O2_7  and  C6_8 
REMARK    6  A    between atoms: C7_9  and  N4_21 
REMARK    7  A    between atoms: C8_10  and  O5_20 
REMARK    8  A    between atoms: C9_11  and  N1_16 
REMARK    9  A    between atoms: C10_12  and  O4_15 
REMARK   10  A    between atoms: C11_13  and  O3_14 
REMARK       I    between atoms: N1_16  and  C12_17 
REMARK       I    between atoms: C12_17  and  N2_18 
REMARK       I    between atoms: C12_17  and  N3_19 
REMARK       I    between atoms: N4_21  and  C13_22 
REMARK       I    between atoms: C13_22  and  N5_23 
REMARK       I    between atoms: C13_22  and  N6_24 
REMARK   11  A    between atoms: O6_25  and  C14_26 
REMARK   12  A    between atoms: C15_27  and  N7_36 
REMARK   13  A    between atoms: C16_28  and  O10_35 
REMARK   14  A    between atoms: C17_29  and  O9_34 
REMARK   15  A    between atoms: C18_30  and  C19_32 
REMARK   16  A    between atoms: C19_32  and  O8_33 
REMARK   17  A    between atoms: C21_38  and  O11_39 
ROOT
HETATM    1  C6  STM     1      31.683 -57.561 -10.847  1.00  0.00     0.192 C 
HETATM    2  C7  STM     1      31.759 -56.043 -11.166  1.00  0.00     0.287 C 
HETATM    3  C8  STM     1      30.553 -55.580 -12.029  1.00  0.00     0.190 C 
HETATM    4  C9  STM     1      29.211 -55.955 -11.333  1.00  0.00     0.287 C 
HETATM    5  C10 STM     1      29.139 -57.463 -10.982  1.00  0.00     0.185 C 
HETATM    6  C11 STM     1      30.351 -57.882 -10.122  1.00  0.00     0.180 C 
ENDROOT
BRANCH   1   7
HETATM    7  O2  STM     1      32.790 -57.896 -10.020  1.00  0.00    -0.348 OA
BRANCH   7   8
HETATM    8  C5  STM     1      32.893 -57.068  -8.867  1.00  0.00     0.293 C 
HETATM    9  C4  STM     1      32.788 -57.929  -7.607  1.00  0.00     0.218 C 
HETATM   10  C3  STM     1      34.247 -58.266  -7.281  1.00  0.00     0.135 C 
HETATM   11  C2  STM     1      35.046 -57.282  -8.187  1.00  0.00     0.160 C 
HETATM   12  C1  STM     1      36.057 -56.403  -7.442  1.00  0.00     0.043 C 
HETATM   13  O1  STM     1      34.147 -56.438  -8.863  1.00  0.00    -0.350 OA
BRANCH   9  14
HETATM   14  O6  STM     1      32.204 -57.169  -6.555  1.00  0.00    -0.346 OA
BRANCH  14  15
HETATM   15  C14 STM     1      31.073 -57.822  -5.982  1.00  0.00     0.297 C 
HETATM   16  C15 STM     1      30.003 -56.769  -5.562  1.00  0.00     0.305 C 
HETATM   17  C16 STM     1      28.616 -57.424  -5.300  1.00  0.00     0.187 C 
HETATM   18  C17 STM     1      28.745 -58.959  -5.159  1.00  0.00     0.180 C 
HETATM   19  C18 STM     1      29.525 -59.568  -6.373  1.00  0.00     0.179 C 
HETATM   20  O7  STM     1      30.524 -58.710  -6.935  1.00  0.00    -0.349 OA
BRANCH  16  21
HETATM   21  N7  STM     1      29.881 -55.622  -6.502  1.00  0.00     0.091 N 
HETATM   22  C20 STM     1      28.749 -55.702  -7.442  1.00  0.00     0.307 C 
HETATM   23  H34 STM     1      30.759 -55.549  -7.061  1.00  0.00     0.316 HD
ENDBRANCH  16  21
BRANCH  17  24
HETATM   24  O10 STM     1      28.061 -56.878  -4.129  1.00  0.00    -0.391 OA
HETATM   25  H33 STM     1      27.947 -57.625  -3.486  1.00  0.00     0.210 HD
ENDBRANCH  17  24
BRANCH  18  26
HETATM   26  O9  STM     1      27.486 -59.572  -5.024  1.00  0.00    -0.390 OA
HETATM   27  H32 STM     1      26.825 -58.872  -4.797  1.00  0.00     0.210 HD
ENDBRANCH  18  26
BRANCH  19  28
HETATM   28  C19 STM     1      30.148 -60.928  -6.011  1.00  0.00     0.198 C 
BRANCH  28  29
HETATM   29  O8  STM     1      31.298 -61.158  -6.780  1.00  0.00    -0.398 OA
HETATM   30  H31 STM     1      31.006 -61.607  -7.621  1.00  0.00     0.209 HD
ENDBRANCH  28  29
ENDBRANCH  19  28
ENDBRANCH  14  15
ENDBRANCH   9  14
BRANCH  10  31
HETATM   31  C21 STM     1      34.576 -59.745  -7.624  1.00  0.00     0.207 C 
BRANCH  31  32
HETATM   32  O11 STM     1      33.470 -60.396  -8.188  1.00  0.00    -0.398 OA
HETATM   33  H6  STM     1      33.205 -59.848  -8.977  1.00  0.00     0.209 HD
ENDBRANCH  31  32
ENDBRANCH  10  31
BRANCH  10  34
HETATM   34  O12 STM     1      34.482 -58.052  -5.902  1.00  0.00    -0.382 OA
HETATM   35  H39 STM     1      35.035 -58.796  -5.560  1.00  0.00     0.210 HD
ENDBRANCH  10  34
ENDBRANCH   7   8
ENDBRANCH   1   7
BRANCH   2  36
HETATM   36  N4  STM     1      33.080 -55.645 -11.718  1.00  0.00     0.156 N 
HETATM   37  C13 STM     1      33.535 -56.350 -12.931  1.00  0.00     0.674 C 
HETATM   38  N5  STM     1      34.989 -56.196 -13.054  1.00  0.00     0.142 N 
HETATM   39  N6  STM     1      32.870 -55.809 -14.125  1.00  0.00     0.142 N 
HETATM   40  H20 STM     1      35.330 -56.845 -13.805  1.00  0.00     0.318 HD
HETATM   41  H21 STM     1      35.435 -56.512 -12.162  1.00  0.00     0.318 HD
HETATM   42  H22 STM     1      32.622 -56.611 -14.763  1.00  0.00     0.318 HD
HETATM   43  H23 STM     1      33.518 -55.181 -14.664  1.00  0.00     0.318 HD
HETATM   44  H3  STM     1      33.088 -54.612 -11.898  1.00  0.00     0.321 HD
ENDBRANCH   2  36
BRANCH   6  45
HETATM   45  O3  STM     1      30.273 -59.261  -9.871  1.00  0.00    -0.390 OA
HETATM   46  H13 STM     1      29.792 -59.663 -10.638  1.00  0.00     0.210 HD
ENDBRANCH   6  45
BRANCH   3  47
HETATM   47  O5  STM     1      30.615 -54.192 -12.256  1.00  0.00    -0.391 OA
HETATM   48  H19 STM     1      31.210 -53.793 -11.567  1.00  0.00     0.210 HD
ENDBRANCH   3  47
BRANCH   5  49
HETATM   49  O4  STM     1      27.964 -57.739 -10.262  1.00  0.00    -0.391 OA
HETATM   50  H14 STM     1      27.838 -56.998  -9.607  1.00  0.00     0.210 HD
ENDBRANCH   5  49
BRANCH   4  51
HETATM   51  N1  STM     1      27.992 -55.507 -12.052  1.00  0.00     0.156 N 
HETATM   52  C12 STM     1      27.048 -54.573 -11.397  1.00  0.00     0.674 C 
HETATM   53  N2  STM     1      27.743 -53.449 -10.770  1.00  0.00     0.142 N 
HETATM   54  N3  STM     1      26.214 -55.263 -10.414  1.00  0.00     0.142 N 
HETATM   55  H15 STM     1      27.029 -52.825 -10.318  1.00  0.00     0.318 HD
HETATM   56  H16 STM     1      28.175 -52.867 -11.527  1.00  0.00     0.318 HD
HETATM   57  H17 STM     1      25.503 -54.589 -10.056  1.00  0.00     0.318 HD
HETATM   58  H18 STM     1      25.667 -56.002 -10.913  1.00  0.00     0.318 HD
HETATM   59  H1  STM     1      27.466 -56.341 -12.400  1.00  0.00     0.321 HD
ENDBRANCH   4  51
TORSDOF 17
ENDMDL
