MODEL 1
REMARK VINA RESULT:    -7.390      0.000      0.000
REMARK INTER + INTRA:         -11.912
REMARK INTER:                 -10.198
REMARK INTRA:                  -1.714
REMARK UNBOUND:                -1.714
REMARK  7 active torsions:
REMARK  status: ('A' for Active; 'I' for Inactive)
REMARK    1  A    between atoms: S_2  and  N_15 
REMARK    2  A    between atoms: O_4  and  C_23 
REMARK    3  A    between atoms: N_12  and  CA_19 
REMARK       I    between atoms: N_12  and  C_24 
REMARK    4  A    between atoms: N_13  and  CA_25 
REMARK       I    between atoms: N_13  and  C_27 
REMARK       I    between atoms: N_14  and  C_27 
REMARK    5  A    between atoms: CA_18  and  C_23 
REMARK    6  A    between atoms: C_24  and  CA_25 
REMARK    7  A    between atoms: CA_25  and  C_26 
ROOT
HETATM    1  CA  MEZ     1      19.135 -46.660 -15.942  1.00  0.00     0.211 C 
ENDROOT
BRANCH   1   2
HETATM    2  N   MEZ     1      18.097 -45.659 -16.042  1.00  0.00    -0.325 N 
HETATM    3  C   MEZ     1      18.161 -44.607 -16.947  1.00  0.00     0.327 C 
HETATM    4  O   MEZ     1      19.099 -44.444 -17.731  1.00  0.00    -0.247 OA
HETATM    5  N   MEZ     1      17.051 -43.732 -16.884  1.00  0.00    -0.249 N 
HETATM    6  C   MEZ     1      17.025 -42.524 -17.709  1.00  0.00     0.159 C 
HETATM    7  C   MEZ     1      15.907 -43.772 -16.057  1.00  0.00     0.342 C 
HETATM    8  C   MEZ     1      15.611 -41.956 -17.611  1.00  0.00     0.167 C 
HETATM    9  N   MEZ     1      15.106 -42.638 -16.400  1.00  0.00    -0.225 N 
HETATM   10  O   MEZ     1      15.610 -44.604 -15.212  1.00  0.00    -0.245 OA
HETATM   11  H   MEZ     1      17.285 -45.745 -15.439  1.00  0.00     0.165 HD
BRANCH   9  12
HETATM   12  S   MEZ     1      13.520 -42.354 -15.894  1.00  0.00     0.232 S 
HETATM   13  O   MEZ     1      12.653 -43.412 -16.386  1.00  0.00    -0.206 OA
HETATM   14  O   MEZ     1      13.514 -41.984 -14.488  1.00  0.00    -0.206 OA
HETATM   15  C   MEZ     1      13.157 -40.887 -16.833  1.00  0.00     0.186 C 
ENDBRANCH   9  12
ENDBRANCH   1   2
BRANCH   1  16
HETATM   16  C   MEZ     1      19.350 -46.975 -14.467  1.00  0.00     0.245 C 
HETATM   17  O   MEZ     1      20.282 -47.667 -14.057  1.00  0.00    -0.271 OA
HETATM   18  N   MEZ     1      18.410 -46.361 -13.638  1.00  0.00    -0.344 N 
HETATM   19  H   MEZ     1      17.684 -45.802 -14.079  1.00  0.00     0.163 HD
BRANCH  18  20
HETATM   20  CA  MEZ     1      18.437 -46.478 -12.182  1.00  0.00     0.199 A 
HETATM   21  C   MEZ     1      19.230 -45.429 -11.389  1.00  0.00     0.160 A 
HETATM   22  S   MEZ     1      19.777 -43.943 -12.305  1.00  0.00    -0.135 SA
HETATM   23  N   MEZ     1      17.958 -45.008 -10.795  1.00  0.00    -0.219 NA
HETATM   24  C   MEZ     1      18.955 -42.826 -11.063  1.00  0.00     0.029 C 
HETATM   25  CA  MEZ     1      17.671 -43.593 -10.677  1.00  0.00     0.182 C 
HETATM   26  C   MEZ     1      18.627 -41.491 -11.733  1.00  0.00     0.029 C 
HETATM   27  C   MEZ     1      19.937 -42.605  -9.904  1.00  0.00     0.029 C 
HETATM   28  C   MEZ     1      17.191 -45.912 -11.472  1.00  0.00     0.227 A 
HETATM   29  O   MEZ     1      15.996 -46.075 -11.557  1.00  0.00    -0.277 OA
BRANCH  25  30
HETATM   30  C   MEZ     1      17.178 -43.356  -9.285  1.00  0.00     0.160 C 
HETATM   31  OXT MEZ     1      16.804 -42.279  -8.846  1.00  0.00    -0.649 OA
BRANCH  30  32
HETATM   32  O   MEZ     1      17.203 -44.506  -8.567  1.00  0.00    -0.775 OA
HETATM   33  H   MEZ     1      17.282 -44.334  -7.604  1.00  0.00     0.167 HD
ENDBRANCH  30  32
ENDBRANCH  25  30
ENDBRANCH  18  20
ENDBRANCH   1  16
BRANCH   1  34
HETATM   34  C   MEZ     1      18.802 -47.900 -16.737  1.00  0.00    -0.026 A 
HETATM   35  C   MEZ     1      17.489 -48.369 -16.782  1.00  0.00     0.010 A 
HETATM   36  C   MEZ     1      17.181 -49.513 -17.517  1.00  0.00     0.001 A 
HETATM   37  C   MEZ     1      18.187 -50.190 -18.206  1.00  0.00     0.000 A 
HETATM   38  C   MEZ     1      19.500 -49.722 -18.161  1.00  0.00     0.001 A 
HETATM   39  C   MEZ     1      19.808 -48.577 -17.426  1.00  0.00     0.010 A 
ENDBRANCH   1  34
TORSDOF 7
ENDMDL
