@<TRIPOS>MOLECULE
*****
 53 55 0 0 0
SMALL
GASTEIGER

@<TRIPOS>ATOM
      1  C1        10.7630    3.6901    4.8160 C.3     1  NOR1       -0.0523
      2  N1        11.7137    4.7329    6.9009 N.3     1  NOR1       -0.2987
      3  O1        11.4449    5.4422   11.0786 O.3     1  NOR1       -0.3910
      4  C2        11.8160    3.6023    5.9386 C.3     1  NOR1       -0.0036
      5  N2        16.2777    6.9519    7.1104 N.3     1  NOR1       -0.2942
      6  O2         9.8792    2.0454   10.1619 O.3     1  NOR1       -0.3668
      7  C3        10.4849    4.7319    7.7475 C.3     1  NOR1        0.0090
      8  N3        18.2827    8.4909    5.6450 N.3     1  NOR1       -0.3136
      9  O3        11.9546    1.9368    9.1690 O.3     1  NOR1       -0.3668
     10  C4        10.6801    4.1081    9.1559 C.3     1  NOR1        0.0487
     11  C5        11.9038    4.7246    9.9244 C.3     1  NOR1        0.0681
     12  C6        12.7284    5.6745    9.0154 C.3     1  NOR1        0.0038
     13  C7        14.0548    6.1650    9.6669 C.3     1  NOR1       -0.0136
     14  C8        15.3098    5.5310    9.0237 C.3     1  NOR1        0.1168
     15  C9        15.3987    5.7823    7.4748 C.3     1  NOR1        0.0430
     16  C10       13.9701    5.8316    6.8475 C.3     1  NOR1       -0.0186
     17  C11       12.9791    4.9664    7.6548 C.3     1  NOR1        0.0172
     18  C12       17.7180    6.5555    7.0806 C.3     1  NOR1        0.0119
     19  C13       18.6336    7.7819    6.8913 C.3     1  NOR1        0.0087
     20  C14       16.8651    8.9007    5.6451 C.3     1  NOR1        0.0087
     21  C15       15.9434    7.6782    5.8466 C.3     1  NOR1        0.0119
     22  C16       10.6625    2.5484    9.0862 C.3     1  NOR1        0.1595
     23  F1        16.3927    5.9646    9.6944 F       1  NOR1       -0.2439
     24  H01       10.8099    4.6630    4.3212 H       1  NOR1        0.0242
     25  H02       10.9528    2.9177    4.0676 H       1  NOR1        0.0242
     26  H03        9.7518    3.5409    5.1982 H       1  NOR1        0.0242
     27  H04       11.3880    6.3910   10.8660 H       1  NOR1        0.2098
     28  H05       12.7994    3.6224    5.4615 H       1  NOR1        0.0424
     29  H06       11.7192    2.6480    6.4614 H       1  NOR1        0.0424
     30  H07        9.9300    2.7000   10.8800 H       1  NOR1        0.2125
     31  H08        9.6516    4.2410    7.2410 H       1  NOR1        0.0432
     32  H09       10.1874    5.7742    7.8933 H       1  NOR1        0.0432
     33  H10       18.8811    9.3062    5.5277 H       1  NOR1        0.1220
     34  H11       12.3630    1.9090    8.2880 H       1  NOR1        0.2125
     35  H12        9.7770    4.3992    9.7010 H       1  NOR1        0.0387
     36  H13       12.5651    3.9333   10.2827 H       1  NOR1        0.0601
     37  H14       12.1304    6.5725    8.8328 H       1  NOR1        0.0342
     38  H15       14.0540    5.9649   10.7411 H       1  NOR1        0.0297
     39  H16       14.1230    7.2501    9.5523 H       1  NOR1        0.0297
     40  H17       15.2652    4.4516    9.1944 H       1  NOR1        0.0667
     41  H18       15.8644    4.8875    7.0507 H       1  NOR1        0.0491
     42  H19       14.0232    5.5005    5.8080 H       1  NOR1        0.0296
     43  H20       13.5727    6.8484    6.8477 H       1  NOR1        0.0296
     44  H21       13.4383    3.9927    7.8536 H       1  NOR1        0.0467
     45  H22       17.8847    5.8580    6.2543 H       1  NOR1        0.0439
     46  H23       18.0085    6.0526    8.0042 H       1  NOR1        0.0439
     47  H24       18.5206    8.4567    7.7447 H       1  NOR1        0.0437
     48  H25       19.6752    7.4543    6.8406 H       1  NOR1        0.0437
     49  H26       16.6267    9.3840    4.6940 H       1  NOR1        0.0437
     50  H27       16.6941    9.6196    6.4519 H       1  NOR1        0.0437
     51  H28       14.9230    8.0625    5.8731 H       1  NOR1        0.0439
     52  H29       16.0426    7.0021    4.9923 H       1  NOR1        0.0439
     53  H30       10.1829    2.1955    8.1603 H       1  NOR1        0.0909
@<TRIPOS>BOND
     1    25     1    1
     2    49    20    1
     3    28     4    1
     4    52    21    1
     5     1    26    1
     6     1    24    1
     7     1     4    1
     8    33     8    1
     9     8    20    1
    10     8    19    1
    11    45    18    1
    12    42    16    1
    13     4    29    1
    14     4     2    1
    15    20    21    1
    16    20    50    1
    17    21    51    1
    18    21     5    1
    19    48    19    1
    20    19    18    1
    21    19    47    1
    22    18     5    1
    23    18    46    1
    24    43    16    1
    25    16    15    1
    26    16    17    1
    27     2    17    1
    28     2     7    1
    29     5    15    1
    30    41    15    1
    31    31     7    1
    32    15    14    1
    33    17    44    1
    34    17    12    1
    35     7    32    1
    36     7    10    1
    37    53    22    1
    38    34     9    1
    39    37    12    1
    40    12    13    1
    41    12    11    1
    42    14    40    1
    43    14    23    1
    44    14    13    1
    45    22    10    1
    46    22     9    1
    47    22     6    1
    48    10    35    1
    49    10    11    1
    50    39    13    1
    51    13    38    1
    52    11    36    1
    53    11     3    1
    54     6    30    1
    55    27     3    1
