MODEL 1
REMARK VINA RESULT:    -6.478      0.000      0.000
REMARK INTER + INTRA:          -8.124
REMARK INTER:                  -7.803
REMARK INTRA:                  -0.321
REMARK UNBOUND:                -0.321
REMARK  5 active torsions:
REMARK  status: ('A' for Active; 'I' for Inactive)
REMARK    1  A    between atoms: C7_9  and  C18_24 
REMARK    2  A    between atoms: C8_10  and  O2_11 
REMARK    3  A    between atoms: C12_15  and  N2_16 
REMARK    4  A    between atoms: C18_24  and  O3_25 
REMARK    5  A    between atoms: C18_24  and  O4_26 
ROOT
HETATM    1  C1  LEV     1     -33.226  -6.974 -10.944  1.00  0.00     0.045 C 
HETATM    2  C2  LEV     1     -32.145  -6.001 -11.420  1.00  0.00     0.243 C 
HETATM    3  C3  LEV     1     -31.980  -4.838 -10.407  1.00  0.00     0.203 C 
HETATM    4  O1  LEV     1     -31.367  -5.246  -9.196  1.00  0.00    -0.379 OA
HETATM    5  C4  LEV     1     -30.194  -6.034  -9.381  1.00  0.00     0.191 C 
HETATM    6  C5  LEV     1     -29.755  -6.212 -10.860  1.00  0.00     0.261 C 
HETATM    7  N1  LEV     1     -30.883  -6.761 -11.634  1.00  0.00     0.103 N 
HETATM    8  C6  LEV     1     -30.537  -6.856 -13.066  1.00  0.00     0.285 C 
HETATM    9  C7  LEV     1     -29.341  -7.813 -13.271  1.00  0.00     0.098 C 
HETATM   10  C8  LEV     1     -28.126  -7.345 -12.426  1.00  0.00     0.135 C 
HETATM   11  C9  LEV     1     -28.533  -7.155 -10.945  1.00  0.00     0.054 C 
HETATM   12  C10 LEV     1     -27.364  -6.587 -10.107  1.00  0.00     0.049 C 
HETATM   13  C11 LEV     1     -27.782  -6.371  -8.643  1.00  0.00     0.206 C 
HETATM   14  C12 LEV     1     -29.023  -5.437  -8.565  1.00  0.00     0.287 C 
HETATM   15  F1  LEV     1     -28.041  -7.611  -8.081  1.00  0.00    -0.247 F 
ENDROOT
BRANCH  14  16
HETATM   16  N2  LEV     1     -29.451  -5.072  -7.186  1.00  0.00     0.102 N 
HETATM   17  C13 LEV     1     -28.612  -5.600  -6.094  1.00  0.00     0.303 C 
HETATM   18  C14 LEV     1     -29.312  -5.359  -4.749  1.00  0.00     0.302 C 
HETATM   19  N3  LEV     1     -29.635  -3.934  -4.532  1.00  0.00     0.087 N 
HETATM   20  C15 LEV     1     -30.353  -3.344  -5.682  1.00  0.00     0.302 C 
HETATM   21  C17 LEV     1     -28.457  -3.140  -4.141  1.00  0.00     0.310 C 
HETATM   22  C16 LEV     1     -29.652  -3.621  -7.020  1.00  0.00     0.303 C 
ENDBRANCH  14  16
BRANCH  10  23
HETATM   23  O2  LEV     1     -27.059  -8.257 -12.534  1.00  0.00    -0.395 OA
HETATM   24  H6  LEV     1     -27.104  -8.668 -13.437  1.00  0.00     0.210 HD
ENDBRANCH  10  23
BRANCH   9  25
HETATM   25  C18 LEV     1     -28.972  -7.948 -14.769  1.00  0.00     0.262 C 
BRANCH  25  26
HETATM   26  O3  LEV     1     -28.056  -6.950 -15.132  1.00  0.00    -0.371 OA
HETATM   27  H12 LEV     1     -28.004  -6.965 -16.124  1.00  0.00     0.212 HD
ENDBRANCH  25  26
BRANCH  25  28
HETATM   28  O4  LEV     1     -30.123  -7.834 -15.568  1.00  0.00    -0.371 OA
HETATM   29  H20 LEV     1     -30.900  -7.818 -14.951  1.00  0.00     0.212 HD
ENDBRANCH  25  28
ENDBRANCH   9  25
TORSDOF 5
ENDMDL
