MODEL 1
REMARK VINA RESULT:    -7.632      0.000      0.000
REMARK INTER + INTRA:         -14.479
REMARK INTER:                 -12.762
REMARK INTRA:                  -1.717
REMARK UNBOUND:                -1.717
REMARK  16 active torsions:
REMARK  status: ('A' for Active; 'I' for Inactive)
REMARK    1  A    between atoms: C3_3  and  C20_33 
REMARK    2  A    between atoms: C5_7  and  N2_10 
REMARK    3  A    between atoms: C6_8  and  O1_9 
REMARK    4  A    between atoms: N2_10  and  C7_11 
REMARK    5  A    between atoms: C7_11  and  O2_12 
REMARK    6  A    between atoms: C7_11  and  C8_13 
REMARK    7  A    between atoms: C8_13  and  C9_14 
REMARK    8  A    between atoms: C8_13  and  N3_20 
REMARK    9  A    between atoms: N3_20  and  C15_21 
REMARK   10  A    between atoms: C15_21  and  O3_22 
REMARK   11  A    between atoms: C15_21  and  N4_23 
REMARK   12  A    between atoms: C18_27  and  O4_28 
REMARK   13  A    between atoms: S2_29  and  O5_30 
REMARK   14  A    between atoms: S2_29  and  O6_31 
REMARK   15  A    between atoms: C20_33  and  O7_34 
REMARK   16  A    between atoms: C20_33  and  O8_35 
ROOT
HETATM    1  C8  MEZ     1     -31.014  -6.001 -11.346  1.00  0.00     0.288 C 
ENDROOT
BRANCH   1   2
HETATM    2  C7  MEZ     1     -32.079  -5.915 -10.196  1.00  0.00     0.388 C 
BRANCH   2   3
HETATM    3  N2  MEZ     1     -31.491  -5.446  -8.926  1.00  0.00     0.126 N 
HETATM    4  H7  MEZ     1     -31.142  -6.257  -8.365  1.00  0.00     0.320 HD
BRANCH   3   5
HETATM    5  C5  MEZ     1     -32.361  -4.549  -8.137  1.00  0.00     0.325 A 
HETATM    6  C4  MEZ     1     -32.138  -4.526  -6.618  1.00  0.00     0.326 A 
HETATM    7  N1  MEZ     1     -31.573  -3.171  -6.632  1.00  0.00     0.146 N 
HETATM    8  S1  MEZ     1     -30.980  -5.738  -5.894  1.00  0.00    -0.119 SA
HETATM    9  C3  MEZ     1     -30.154  -3.228  -6.209  1.00  0.00     0.299 C 
HETATM   10  C6  MEZ     1     -31.839  -3.117  -8.091  1.00  0.00     0.395 A 
HETATM   11  C2  MEZ     1     -30.006  -4.387  -5.185  1.00  0.00     0.039 C 
HETATM   12  C1  MEZ     1     -30.584  -4.054  -3.795  1.00  0.00     0.029 C 
HETATM   13  C21 MEZ     1     -28.553  -4.876  -5.043  1.00  0.00     0.029 C 
BRANCH   9  14
HETATM   14  C20 MEZ     1     -29.738  -1.831  -5.678  1.00  0.00     0.289 C 
BRANCH  14  15
HETATM   15  O7  MEZ     1     -30.375  -0.828  -6.428  1.00  0.00    -0.369 OA
HETATM   16  H18 MEZ     1     -30.210  -1.041  -7.383  1.00  0.00     0.212 HD
ENDBRANCH  14  15
BRANCH  14  17
HETATM   17  O8  MEZ     1     -28.347  -1.653  -5.736  1.00  0.00    -0.369 OA
HETATM   18  H22 MEZ     1     -28.121  -0.917  -5.108  1.00  0.00     0.212 HD
ENDBRANCH  14  17
ENDBRANCH   9  14
BRANCH  10  19
HETATM   19  O1  MEZ     1     -30.703  -2.908  -8.894  1.00  0.00    -0.366 OA
HETATM   20  H2  MEZ     1     -30.927  -2.157  -9.503  1.00  0.00     0.212 HD
ENDBRANCH  10  19
ENDBRANCH   3   5
ENDBRANCH   2   3
BRANCH   2  21
HETATM   21  O2  MEZ     1     -33.187  -5.118 -10.552  1.00  0.00    -0.366 OA
HETATM   22  H4  MEZ     1     -33.496  -4.637  -9.742  1.00  0.00     0.212 HD
ENDBRANCH   2  21
ENDBRANCH   1   2
BRANCH   1  23
HETATM   23  C9  MEZ     1     -29.530  -6.105 -10.871  1.00  0.00     0.023 C 
HETATM   24  C10 MEZ     1     -28.795  -7.378 -11.341  1.00  0.00     0.007 C 
HETATM   25  C11 MEZ     1     -27.462  -7.565 -10.587  1.00  0.00     0.000 C 
HETATM   26  C12 MEZ     1     -26.791  -6.233 -10.191  1.00  0.00     0.000 C 
HETATM   27  C13 MEZ     1     -27.164  -5.096 -11.151  1.00  0.00     0.000 C 
HETATM   28  C14 MEZ     1     -28.685  -4.835 -11.169  1.00  0.00     0.007 C 
ENDBRANCH   1  23
BRANCH   1  29
HETATM   29  N3  MEZ     1     -31.285  -7.151 -12.244  1.00  0.00     0.152 N 
HETATM   30  H14 MEZ     1     -31.894  -7.881 -11.807  1.00  0.00     0.322 HD
BRANCH  29  31
HETATM   31  C15 MEZ     1     -31.870  -6.751 -13.535  1.00  0.00     0.600 C 
BRANCH  31  32
HETATM   32  O3  MEZ     1     -32.442  -5.471 -13.411  1.00  0.00    -0.345 OA
HETATM   33  H12 MEZ     1     -32.081  -5.064 -12.581  1.00  0.00     0.214 HD
ENDBRANCH  31  32
BRANCH  31  34
HETATM   34  N4  MEZ     1     -32.927  -7.714 -13.908  1.00  0.00     0.198 N 
HETATM   35  C16 MEZ     1     -32.399  -8.946 -14.482  1.00  0.00     0.304 C 
HETATM   36  C17 MEZ     1     -33.510  -9.481 -15.361  1.00  0.00     0.168 C 
HETATM   37  N5  MEZ     1     -34.429  -8.378 -15.614  1.00  0.00    -0.280 N 
HETATM   38  C18 MEZ     1     -33.886  -7.222 -14.909  1.00  0.00     0.480 C 
HETATM   39  S2  MEZ     1     -35.398  -8.815 -16.569  1.00  0.00     0.045 S 
HETATM   40  C19 MEZ     1     -37.029  -8.670 -14.900  1.00  0.00     0.150 C 
BRANCH  38  41
HETATM   41  O4  MEZ     1     -33.274  -6.375 -15.853  1.00  0.00    -0.352 OA
HETATM   42  H14 MEZ     1     -32.347  -6.705 -15.980  1.00  0.00     0.214 HD
ENDBRANCH  38  41
BRANCH  39  43
HETATM   43  O5  MEZ     1     -36.422  -6.502 -17.243  1.00  0.00    -0.312 OA
HETATM   44  H15 MEZ     1     -36.045  -5.820 -16.632  1.00  0.00     0.230 HD
ENDBRANCH  39  43
BRANCH  39  45
HETATM   45  O6  MEZ     1     -35.032  -8.074 -18.133  1.00  0.00    -0.312 OA
HETATM   46  H16 MEZ     1     -34.567  -8.593 -18.837  1.00  0.00     0.230 HD
ENDBRANCH  39  45
ENDBRANCH  31  34
ENDBRANCH  29  31
ENDBRANCH   1  29
TORSDOF 16
ENDMDL
