MODEL 1
REMARK VINA RESULT:    -5.746      0.000      0.000
REMARK INTER + INTRA:          -8.766
REMARK INTER:                  -8.097
REMARK INTRA:                  -0.669
REMARK UNBOUND:                -0.669
REMARK  9 active torsions:
REMARK  status: ('A' for Active; 'I' for Inactive)
REMARK    1  A    between atoms: C3_3  and  C15_20 
REMARK    2  A    between atoms: C5_7  and  N2_10 
REMARK    3  A    between atoms: C6_8  and  O1_9 
REMARK    4  A    between atoms: N2_10  and  C7_11 
REMARK    5  A    between atoms: C7_11  and  O2_12 
REMARK    6  A    between atoms: C7_11  and  C8_13 
REMARK    7  A    between atoms: C8_13  and  C9_14 
REMARK    8  A    between atoms: C15_20  and  O3_21 
REMARK    9  A    between atoms: C15_20  and  O4_22 
ROOT
HETATM    1  C1  PEN     1     -53.112  25.149  33.448  1.00  0.00     0.029 C 
HETATM    2  C2  PEN     1     -53.026  25.747  32.025  1.00  0.00     0.039 C 
HETATM    3  C3  PEN     1     -52.890  27.316  31.938  1.00  0.00     0.299 C 
HETATM    4  N1  PEN     1     -53.899  27.898  31.026  1.00  0.00     0.146 N 
HETATM    5  C4  PEN     1     -54.907  26.933  30.589  1.00  0.00     0.326 A 
HETATM    6  S1  PEN     1     -54.544  25.246  31.162  1.00  0.00    -0.119 SA
HETATM    7  C5  PEN     1     -54.640  27.199  29.103  1.00  0.00     0.325 A 
HETATM    8  C6  PEN     1     -53.532  28.128  29.611  1.00  0.00     0.395 A 
HETATM    9  C16 PEN     1     -51.831  25.072  31.321  1.00  0.00     0.029 C 
ENDROOT
BRANCH   7  10
HETATM   10  N2  PEN     1     -54.208  26.019  28.323  1.00  0.00     0.124 N 
HETATM   11  H7  PEN     1     -53.283  26.187  27.869  1.00  0.00     0.320 HD
BRANCH  10  12
HETATM   12  C7  PEN     1     -55.205  25.653  27.301  1.00  0.00     0.354 C 
BRANCH  12  13
HETATM   13  O2  PEN     1     -54.557  25.090  26.188  1.00  0.00    -0.368 OA
HETATM   14  H4  PEN     1     -54.122  24.254  26.503  1.00  0.00     0.212 HD
ENDBRANCH  12  13
BRANCH  12  15
HETATM   15  C8  PEN     1     -56.178  24.614  27.886  1.00  0.00     0.068 C 
BRANCH  15  16
HETATM   16  C9  PEN     1     -55.977  23.194  27.308  1.00  0.00    -0.010 C 
HETATM   17  C10 PEN     1     -55.113  22.345  28.261  1.00  0.00     0.005 C 
HETATM   18  C11 PEN     1     -54.782  20.965  27.657  1.00  0.00     0.000 C 
HETATM   19  C12 PEN     1     -55.868  20.435  26.701  1.00  0.00     0.000 C 
HETATM   20  C13 PEN     1     -57.257  20.951  27.086  1.00  0.00     0.000 C 
HETATM   21  C14 PEN     1     -57.332  22.489  27.020  1.00  0.00     0.005 C 
ENDBRANCH  15  16
ENDBRANCH  12  15
ENDBRANCH  10  12
ENDBRANCH   7  10
BRANCH   8  22
HETATM   22  O1  PEN     1     -52.233  27.701  29.285  1.00  0.00    -0.366 OA
HETATM   23  H2  PEN     1     -51.740  27.633  30.143  1.00  0.00     0.212 HD
ENDBRANCH   8  22
BRANCH   3  24
HETATM   24  C15 PEN     1     -52.991  28.108  33.263  1.00  0.00     0.289 C 
BRANCH  24  25
HETATM   25  O3  PEN     1     -52.127  29.215  33.249  1.00  0.00    -0.369 OA
HETATM   26  H12 PEN     1     -51.439  29.051  33.944  1.00  0.00     0.212 HD
ENDBRANCH  24  25
BRANCH  24  27
HETATM   27  O4  PEN     1     -54.313  28.515  33.503  1.00  0.00    -0.369 OA
HETATM   28  H15 PEN     1     -54.306  29.508  33.532  1.00  0.00     0.212 HD
ENDBRANCH  24  27
ENDBRANCH   3  24
TORSDOF 9
ENDMDL
