MODEL 1
REMARK VINA RESULT:      -7.3      0.000      0.000
REMARK  7 active torsions:
REMARK  status: ('A' for Active; 'I' for Inactive)
REMARK    1  A    between atoms: C2_2  and  C3_3 
REMARK    2  A    between atoms: C3_3  and  C4_4 
REMARK    3  A    between atoms: C7_10  and  C9_14 
REMARK    4  A    between atoms: C10_15  and  O4_30 
REMARK    5  A    between atoms: C13_18  and  S1_20 
REMARK    6  A    between atoms: S1_20  and  N5_23 
REMARK    7  A    between atoms: O4_30  and  C20_31 
ROOT
HETATM    1  C9  VIA     1     -54.343  -7.046  -9.402  1.00  0.00     0.045 A 
HETATM    2  C10 VIA     1     -55.312  -6.299  -8.693  1.00  0.00     0.082 A 
HETATM    3  C11 VIA     1     -54.893  -5.238  -7.875  1.00  0.00     0.039 A 
HETATM    4  C12 VIA     1     -53.539  -4.913  -7.753  1.00  0.00     0.028 A 
HETATM    5  C13 VIA     1     -52.588  -5.657  -8.446  1.00  0.00     0.080 A 
HETATM    6  C14 VIA     1     -52.984  -6.700  -9.285  1.00  0.00     0.043 A 
ENDROOT
BRANCH   1   7
HETATM    7  C7  VIA     1     -54.656  -8.228 -10.285  1.00  0.00     0.144 A 
HETATM    8  N3  VIA     1     -54.375  -8.167 -11.560  1.00  0.00    -0.226 NA
HETATM    9  C6  VIA     1     -54.705  -9.319 -12.274  1.00  0.00     0.119 A 
HETATM   10  C4  VIA     1     -54.546  -9.607 -13.639  1.00  0.00     0.086 A 
HETATM   11  C5  VIA     1     -55.266 -10.422 -11.706  1.00  0.00     0.151 A 
HETATM   12  N1  VIA     1     -54.994 -10.847 -13.915  1.00  0.00    -0.174 NA
HETATM   13  N2  VIA     1     -55.425 -11.317 -12.717  1.00  0.00    -0.266 N 
HETATM   14  C22 VIA     1     -55.981 -12.644 -12.622  1.00  0.00     0.180 C 
HETATM   15  C8  VIA     1     -55.571 -10.500 -10.326  1.00  0.00     0.278 A 
HETATM   16  N4  VIA     1     -55.237  -9.334  -9.675  1.00  0.00    -0.305 N 
HETATM   17  O1  VIA     1     -56.062 -11.465  -9.752  1.00  0.00    -0.265 OA
HETATM   18  H8  VIA     1     -55.406  -9.324  -8.678  1.00  0.00     0.170 HD
BRANCH  10  19
HETATM   19  C3  VIA     1     -53.984  -8.739 -14.711  1.00  0.00     0.063 C 
BRANCH  19  20
HETATM   20  C2  VIA     1     -55.048  -8.134 -15.631  1.00  0.00     0.002 C 
HETATM   21  C1  VIA     1     -54.782  -6.675 -15.974  1.00  0.00     0.005 C 
ENDBRANCH  19  20
ENDBRANCH  10  19
ENDBRANCH   1   7
BRANCH   2  22
HETATM   22  O4  VIA     1     -56.625  -6.668  -8.839  1.00  0.00    -0.351 OA
BRANCH  22  23
HETATM   23  C20 VIA     1     -57.661  -5.685  -8.784  1.00  0.00     0.171 C 
HETATM   24  C21 VIA     1     -58.267  -5.616  -7.394  1.00  0.00     0.034 C 
ENDBRANCH  22  23
ENDBRANCH   2  22
BRANCH   5  25
HETATM   25  S1  VIA     1     -50.863  -5.231  -8.326  1.00  0.00     0.261 S 
HETATM   26  O2  VIA     1     -50.335  -5.183  -9.672  1.00  0.00    -0.200 OA
HETATM   27  O3  VIA     1     -50.767  -4.082  -7.448  1.00  0.00    -0.200 OA
BRANCH  25  28
HETATM   28  N5  VIA     1     -50.178  -6.556  -7.527  1.00  0.00    -0.303 N 
HETATM   29  C15 VIA     1     -49.451  -7.549  -8.366  1.00  0.00     0.165 C 
HETATM   30  C16 VIA     1     -49.204  -8.842  -7.562  1.00  0.00     0.292 C 
HETATM   31  N6  VIA     1     -48.463  -8.586  -6.308  1.00  0.00     0.087 N 
HETATM   32  C17 VIA     1     -49.209  -7.603  -5.491  1.00  0.00     0.292 C 
HETATM   33  C19 VIA     1     -48.270  -9.829  -5.563  1.00  0.00     0.310 C 
HETATM   34  C18 VIA     1     -49.456  -6.285  -6.251  1.00  0.00     0.165 C 
ENDBRANCH  25  28
ENDBRANCH   5  25
TORSDOF 7
ENDMDL
