MODEL 1
REMARK VINA RESULT:      -6.7      0.000      0.000
REMARK  7 active torsions:
REMARK  status: ('A' for Active; 'I' for Inactive)
REMARK    1  A    between atoms: C2_2  and  C3_3 
REMARK    2  A    between atoms: C3_3  and  C4_4 
REMARK    3  A    between atoms: C7_10  and  C9_14 
REMARK    4  A    between atoms: C10_15  and  O4_30 
REMARK    5  A    between atoms: C13_18  and  S1_20 
REMARK    6  A    between atoms: S1_20  and  N5_23 
REMARK    7  A    between atoms: O4_30  and  C20_31 
ROOT
HETATM    1  C9  VIA     1     -53.023  -7.392 -10.980  1.00  0.00     0.045 A 
HETATM    2  C10 VIA     1     -53.798  -6.745  -9.988  1.00  0.00     0.082 A 
HETATM    3  C11 VIA     1     -53.148  -6.135  -8.904  1.00  0.00     0.039 A 
HETATM    4  C12 VIA     1     -51.755  -6.160  -8.792  1.00  0.00     0.028 A 
HETATM    5  C13 VIA     1     -50.998  -6.805  -9.766  1.00  0.00     0.080 A 
HETATM    6  C14 VIA     1     -51.621  -7.396 -10.866  1.00  0.00     0.043 A 
ENDROOT
BRANCH   1   7
HETATM    7  C7  VIA     1     -53.597  -8.112 -12.174  1.00  0.00     0.144 A 
HETATM    8  N3  VIA     1     -52.800  -8.786 -12.959  1.00  0.00    -0.226 NA
HETATM    9  C6  VIA     1     -53.444  -9.413 -14.027  1.00  0.00     0.119 A 
HETATM   10  C4  VIA     1     -52.913 -10.212 -15.052  1.00  0.00     0.086 A 
HETATM   11  C5  VIA     1     -54.786  -9.343 -14.242  1.00  0.00     0.151 A 
HETATM   12  N1  VIA     1     -53.891 -10.626 -15.882  1.00  0.00    -0.174 NA
HETATM   13  N2  VIA     1     -55.018 -10.080 -15.360  1.00  0.00    -0.266 N 
HETATM   14  C22 VIA     1     -56.292 -10.314 -15.997  1.00  0.00     0.180 C 
HETATM   15  C8  VIA     1     -55.660  -8.619 -13.396  1.00  0.00     0.278 A 
HETATM   16  N4  VIA     1     -54.970  -8.012 -12.370  1.00  0.00    -0.305 N 
HETATM   17  O1  VIA     1     -56.875  -8.527 -13.526  1.00  0.00    -0.265 OA
HETATM   18  H8  VIA     1     -55.534  -7.493 -11.710  1.00  0.00     0.170 HD
BRANCH  10  19
HETATM   19  C3  VIA     1     -51.494 -10.599 -15.287  1.00  0.00     0.063 C 
BRANCH  19  20
HETATM   20  C2  VIA     1     -50.881 -11.407 -14.141  1.00  0.00     0.002 C 
HETATM   21  C1  VIA     1     -49.601 -12.131 -14.538  1.00  0.00     0.005 C 
ENDBRANCH  19  20
ENDBRANCH  10  19
ENDBRANCH   1   7
BRANCH   2  22
HETATM   22  O4  VIA     1     -55.161  -6.761 -10.140  1.00  0.00    -0.351 OA
BRANCH  22  23
HETATM   23  C20 VIA     1     -56.015  -6.685  -8.997  1.00  0.00     0.171 C 
HETATM   24  C21 VIA     1     -56.824  -5.401  -9.012  1.00  0.00     0.034 C 
ENDBRANCH  22  23
ENDBRANCH   2  22
BRANCH   5  25
HETATM   25  S1  VIA     1     -49.221  -6.814  -9.652  1.00  0.00     0.261 S 
HETATM   26  O2  VIA     1     -48.720  -5.873 -10.632  1.00  0.00    -0.200 OA
HETATM   27  O3  VIA     1     -48.882  -6.678  -8.250  1.00  0.00    -0.200 OA
BRANCH  25  28
HETATM   28  N5  VIA     1     -48.795  -8.376 -10.142  1.00  0.00    -0.303 N 
HETATM   29  C15 VIA     1     -47.529  -8.521 -10.912  1.00  0.00     0.165 C 
HETATM   30  C16 VIA     1     -47.469  -9.913 -11.576  1.00  0.00     0.292 C 
HETATM   31  N6  VIA     1     -47.600 -11.007 -10.589  1.00  0.00     0.087 N 
HETATM   32  C17 VIA     1     -48.868 -10.843  -9.843  1.00  0.00     0.292 C 
HETATM   33  C19 VIA     1     -47.564 -12.307 -11.256  1.00  0.00     0.310 C 
HETATM   34  C18 VIA     1     -48.957  -9.472  -9.144  1.00  0.00     0.165 C 
ENDBRANCH  25  28
ENDBRANCH   5  25
TORSDOF 7
ENDMDL
