MODEL 1
REMARK VINA RESULT:      -6.5      0.000      0.000
REMARK  7 active torsions:
REMARK  status: ('A' for Active; 'I' for Inactive)
REMARK    1  A    between atoms: C2_2  and  C3_3 
REMARK    2  A    between atoms: C3_3  and  C4_4 
REMARK    3  A    between atoms: C7_10  and  C9_14 
REMARK    4  A    between atoms: C10_15  and  O4_30 
REMARK    5  A    between atoms: C13_18  and  S1_20 
REMARK    6  A    between atoms: S1_20  and  N5_23 
REMARK    7  A    between atoms: O4_30  and  C20_31 
ROOT
HETATM    1  C9  VIA     1     -57.013 -11.339  -8.959  1.00  0.00     0.045 A 
HETATM    2  C10 VIA     1     -56.673 -12.000 -10.163  1.00  0.00     0.082 A 
HETATM    3  C11 VIA     1     -57.127 -13.311 -10.374  1.00  0.00     0.039 A 
HETATM    4  C12 VIA     1     -57.903 -13.968  -9.416  1.00  0.00     0.028 A 
HETATM    5  C13 VIA     1     -58.228 -13.317  -8.229  1.00  0.00     0.080 A 
HETATM    6  C14 VIA     1     -57.809 -12.004  -8.008  1.00  0.00     0.043 A 
ENDROOT
BRANCH   1   7
HETATM    7  C7  VIA     1     -56.563  -9.947  -8.594  1.00  0.00     0.144 A 
HETATM    8  N3  VIA     1     -55.815  -9.771  -7.538  1.00  0.00    -0.226 NA
HETATM    9  C6  VIA     1     -55.458  -8.443  -7.303  1.00  0.00     0.119 A 
HETATM   10  C4  VIA     1     -54.673  -7.891  -6.278  1.00  0.00     0.086 A 
HETATM   11  C5  VIA     1     -55.843  -7.408  -8.099  1.00  0.00     0.151 A 
HETATM   12  N1  VIA     1     -54.572  -6.556  -6.429  1.00  0.00    -0.174 NA
HETATM   13  N2  VIA     1     -55.295  -6.294  -7.547  1.00  0.00    -0.266 N 
HETATM   14  C22 VIA     1     -55.413  -4.939  -8.027  1.00  0.00     0.180 C 
HETATM   15  C8  VIA     1     -56.650  -7.587  -9.248  1.00  0.00     0.278 A 
HETATM   16  N4  VIA     1     -56.982  -8.912  -9.423  1.00  0.00    -0.305 N 
HETATM   17  O1  VIA     1     -57.019  -6.703 -10.012  1.00  0.00    -0.265 OA
HETATM   18  H8  VIA     1     -57.541  -9.120 -10.240  1.00  0.00     0.170 HD
BRANCH  10  19
HETATM   19  C3  VIA     1     -54.010  -8.587  -5.140  1.00  0.00     0.063 C 
BRANCH  19  20
HETATM   20  C2  VIA     1     -54.955  -8.902  -3.979  1.00  0.00     0.002 C 
HETATM   21  C1  VIA     1     -54.924  -7.849  -2.880  1.00  0.00     0.005 C 
ENDBRANCH  19  20
ENDBRANCH  10  19
ENDBRANCH   1   7
BRANCH   2  22
HETATM   22  O4  VIA     1     -55.899 -11.313 -11.063  1.00  0.00    -0.351 OA
BRANCH  22  23
HETATM   23  C20 VIA     1     -54.505 -11.605 -11.185  1.00  0.00     0.171 C 
HETATM   24  C21 VIA     1     -53.667 -10.384 -10.851  1.00  0.00     0.034 C 
ENDBRANCH  22  23
ENDBRANCH   2  22
BRANCH   5  25
HETATM   25  S1  VIA     1     -59.246 -14.132  -7.016  1.00  0.00     0.261 S 
HETATM   26  O2  VIA     1     -58.413 -15.098  -6.332  1.00  0.00    -0.200 OA
HETATM   27  O3  VIA     1     -59.943 -13.097  -6.279  1.00  0.00    -0.200 OA
BRANCH  25  28
HETATM   28  N5  VIA     1     -60.386 -14.969  -7.945  1.00  0.00    -0.303 N 
HETATM   29  C15 VIA     1     -60.840 -16.289  -7.429  1.00  0.00     0.165 C 
HETATM   30  C16 VIA     1     -61.584 -17.064  -8.537  1.00  0.00     0.292 C 
HETATM   31  N6  VIA     1     -62.729 -16.300  -9.078  1.00  0.00     0.087 N 
HETATM   32  C17 VIA     1     -62.249 -14.997  -9.590  1.00  0.00     0.292 C 
HETATM   33  C19 VIA     1     -63.392 -17.054 -10.141  1.00  0.00     0.310 C 
HETATM   34  C18 VIA     1     -61.520 -14.180  -8.504  1.00  0.00     0.165 C 
ENDBRANCH  25  28
ENDBRANCH   5  25
TORSDOF 7
ENDMDL
