MODEL 1
REMARK VINA RESULT:      -7.0      0.000      0.000
REMARK  7 active torsions:
REMARK  status: ('A' for Active; 'I' for Inactive)
REMARK    1  A    between atoms: C2_2  and  C3_3 
REMARK    2  A    between atoms: C3_3  and  C4_4 
REMARK    3  A    between atoms: C7_10  and  C9_14 
REMARK    4  A    between atoms: C10_15  and  O4_30 
REMARK    5  A    between atoms: C13_18  and  S1_20 
REMARK    6  A    between atoms: S1_20  and  N5_23 
REMARK    7  A    between atoms: O4_30  and  C20_31 
ROOT
HETATM    1  C9  VIA     1     -53.364  -7.270 -10.991  1.00  0.00     0.045 A 
HETATM    2  C10 VIA     1     -54.234  -6.593 -10.103  1.00  0.00     0.082 A 
HETATM    3  C11 VIA     1     -53.692  -5.918  -8.998  1.00  0.00     0.039 A 
HETATM    4  C12 VIA     1     -52.315  -5.908  -8.764  1.00  0.00     0.028 A 
HETATM    5  C13 VIA     1     -51.463  -6.582  -9.635  1.00  0.00     0.080 A 
HETATM    6  C14 VIA     1     -51.977  -7.238 -10.754  1.00  0.00     0.043 A 
ENDROOT
BRANCH   1   7
HETATM    7  C7  VIA     1     -53.817  -8.059 -12.193  1.00  0.00     0.144 A 
HETATM    8  N3  VIA     1     -52.932  -8.694 -12.913  1.00  0.00    -0.226 NA
HETATM    9  C6  VIA     1     -53.469  -9.391 -13.996  1.00  0.00     0.119 A 
HETATM   10  C4  VIA     1     -52.827 -10.176 -14.968  1.00  0.00     0.086 A 
HETATM   11  C5  VIA     1     -54.798  -9.423 -14.287  1.00  0.00     0.151 A 
HETATM   12  N1  VIA     1     -53.725 -10.678 -15.837  1.00  0.00    -0.174 NA
HETATM   13  N2  VIA     1     -54.915 -10.202 -15.394  1.00  0.00    -0.266 N 
HETATM   14  C22 VIA     1     -56.131 -10.541 -16.093  1.00  0.00     0.180 C 
HETATM   15  C8  VIA     1     -55.767  -8.741 -13.511  1.00  0.00     0.278 A 
HETATM   16  N4  VIA     1     -55.181  -8.061 -12.467  1.00  0.00    -0.305 N 
HETATM   17  O1  VIA     1     -56.976  -8.739 -13.710  1.00  0.00    -0.265 OA
HETATM   18  H8  VIA     1     -55.815  -7.567 -11.854  1.00  0.00     0.170 HD
BRANCH  10  19
HETATM   19  C3  VIA     1     -51.373 -10.467 -15.113  1.00  0.00     0.063 C 
BRANCH  19  20
HETATM   20  C2  VIA     1     -51.074 -11.915 -15.509  1.00  0.00     0.002 C 
HETATM   21  C1  VIA     1     -50.321 -12.030 -16.827  1.00  0.00     0.005 C 
ENDBRANCH  19  20
ENDBRANCH  10  19
ENDBRANCH   1   7
BRANCH   2  22
HETATM   22  O4  VIA     1     -55.577  -6.646 -10.373  1.00  0.00    -0.351 OA
BRANCH  22  23
HETATM   23  C20 VIA     1     -56.516  -6.872  -9.319  1.00  0.00     0.171 C 
HETATM   24  C21 VIA     1     -57.335  -5.623  -9.049  1.00  0.00     0.034 C 
ENDBRANCH  22  23
ENDBRANCH   2  22
BRANCH   5  25
HETATM   25  S1  VIA     1     -49.703  -6.546  -9.366  1.00  0.00     0.261 S 
HETATM   26  O2  VIA     1     -49.117  -5.783 -10.447  1.00  0.00    -0.200 OA
HETATM   27  O3  VIA     1     -49.490  -6.165  -7.985  1.00  0.00    -0.200 OA
BRANCH  25  28
HETATM   28  N5  VIA     1     -49.239  -8.164  -9.538  1.00  0.00    -0.303 N 
HETATM   29  C15 VIA     1     -48.158  -8.457 -10.519  1.00  0.00     0.165 C 
HETATM   30  C16 VIA     1     -48.102  -9.971 -10.812  1.00  0.00     0.292 C 
HETATM   31  N6  VIA     1     -47.912 -10.769  -9.581  1.00  0.00     0.087 N 
HETATM   32  C17 VIA     1     -49.002 -10.465  -8.627  1.00  0.00     0.292 C 
HETATM   33  C19 VIA     1     -47.890 -12.197  -9.895  1.00  0.00     0.310 C 
HETATM   34  C18 VIA     1     -49.075  -8.963  -8.289  1.00  0.00     0.165 C 
ENDBRANCH  25  28
ENDBRANCH   5  25
TORSDOF 7
ENDMDL
