MODEL 1
REMARK VINA RESULT:      -6.4      0.000      0.000
REMARK  7 active torsions:
REMARK  status: ('A' for Active; 'I' for Inactive)
REMARK    1  A    between atoms: C2_2  and  C3_3 
REMARK    2  A    between atoms: C3_3  and  C4_4 
REMARK    3  A    between atoms: C7_10  and  C9_14 
REMARK    4  A    between atoms: C10_15  and  O4_30 
REMARK    5  A    between atoms: C13_18  and  S1_20 
REMARK    6  A    between atoms: S1_20  and  N5_23 
REMARK    7  A    between atoms: O4_30  and  C20_31 
ROOT
HETATM    1  C9  VIA     1     -59.314  -0.142 -23.441  1.00  0.00     0.045 A 
HETATM    2  C10 VIA     1     -58.392  -0.290 -24.503  1.00  0.00     0.082 A 
HETATM    3  C11 VIA     1     -57.787   0.853 -25.047  1.00  0.00     0.039 A 
HETATM    4  C12 VIA     1     -58.083   2.128 -24.558  1.00  0.00     0.028 A 
HETATM    5  C13 VIA     1     -58.998   2.270 -23.518  1.00  0.00     0.080 A 
HETATM    6  C14 VIA     1     -59.592   1.145 -22.944  1.00  0.00     0.043 A 
ENDROOT
BRANCH   1   7
HETATM    7  C7  VIA     1     -60.057  -1.282 -22.791  1.00  0.00     0.144 A 
HETATM    8  N3  VIA     1     -61.304  -1.116 -22.440  1.00  0.00    -0.226 NA
HETATM    9  C6  VIA     1     -61.888  -2.240 -21.853  1.00  0.00     0.119 A 
HETATM   10  C4  VIA     1     -63.191  -2.423 -21.364  1.00  0.00     0.086 A 
HETATM   11  C5  VIA     1     -61.230  -3.416 -21.661  1.00  0.00     0.151 A 
HETATM   12  N1  VIA     1     -63.342  -3.673 -20.881  1.00  0.00    -0.174 NA
HETATM   13  N2  VIA     1     -62.130  -4.251 -21.078  1.00  0.00    -0.266 N 
HETATM   14  C22 VIA     1     -61.912  -5.619 -20.677  1.00  0.00     0.180 C 
HETATM   15  C8  VIA     1     -59.880  -3.608 -22.041  1.00  0.00     0.278 A 
HETATM   16  N4  VIA     1     -59.353  -2.466 -22.601  1.00  0.00    -0.305 N 
HETATM   17  O1  VIA     1     -59.236  -4.642 -21.909  1.00  0.00    -0.265 OA
HETATM   18  H8  VIA     1     -58.395  -2.535 -22.918  1.00  0.00     0.170 HD
BRANCH  10  19
HETATM   19  C3  VIA     1     -64.315  -1.447 -21.328  1.00  0.00     0.063 C 
BRANCH  19  20
HETATM   20  C2  VIA     1     -65.086  -1.447 -20.005  1.00  0.00     0.002 C 
HETATM   21  C1  VIA     1     -66.531  -0.994 -20.157  1.00  0.00     0.005 C 
ENDBRANCH  19  20
ENDBRANCH  10  19
ENDBRANCH   1   7
BRANCH   2  22
HETATM   22  O4  VIA     1     -58.147  -1.563 -24.954  1.00  0.00    -0.351 OA
BRANCH  22  23
HETATM   23  C20 VIA     1     -56.806  -2.003 -25.177  1.00  0.00     0.171 C 
HETATM   24  C21 VIA     1     -56.685  -3.500 -24.952  1.00  0.00     0.034 C 
ENDBRANCH  22  23
ENDBRANCH   2  22
BRANCH   5  25
HETATM   25  S1  VIA     1     -59.357   3.886 -22.862  1.00  0.00     0.261 S 
HETATM   26  O2  VIA     1     -58.716   4.855 -23.725  1.00  0.00    -0.200 OA
HETATM   27  O3  VIA     1     -60.784   3.939 -22.615  1.00  0.00    -0.200 OA
BRANCH  25  28
HETATM   28  N5  VIA     1     -58.568   3.896 -21.365  1.00  0.00    -0.303 N 
HETATM   29  C15 VIA     1     -57.502   4.916 -21.170  1.00  0.00     0.165 C 
HETATM   30  C16 VIA     1     -56.659   4.571 -19.925  1.00  0.00     0.292 C 
HETATM   31  N6  VIA     1     -57.488   4.452 -18.706  1.00  0.00     0.087 N 
HETATM   32  C17 VIA     1     -58.534   3.428 -18.923  1.00  0.00     0.292 C 
HETATM   33  C19 VIA     1     -56.659   4.100 -17.554  1.00  0.00     0.310 C 
HETATM   34  C18 VIA     1     -59.416   3.750 -20.147  1.00  0.00     0.165 C 
ENDBRANCH  25  28
ENDBRANCH   5  25
TORSDOF 7
ENDMDL
