MODEL 1
REMARK VINA RESULT:      -7.0      0.000      0.000
REMARK  7 active torsions:
REMARK  status: ('A' for Active; 'I' for Inactive)
REMARK    1  A    between atoms: C2_2  and  C3_3 
REMARK    2  A    between atoms: C3_3  and  C4_4 
REMARK    3  A    between atoms: C7_10  and  C9_14 
REMARK    4  A    between atoms: C10_15  and  O4_30 
REMARK    5  A    between atoms: C13_18  and  S1_20 
REMARK    6  A    between atoms: S1_20  and  N5_23 
REMARK    7  A    between atoms: O4_30  and  C20_31 
ROOT
HETATM    1  C9  VIA     1     -54.239  -7.500  -8.782  1.00  0.00     0.045 A 
HETATM    2  C10 VIA     1     -55.010  -6.765  -9.714  1.00  0.00     0.082 A 
HETATM    3  C11 VIA     1     -54.398  -5.736 -10.446  1.00  0.00     0.039 A 
HETATM    4  C12 VIA     1     -53.047  -5.428 -10.266  1.00  0.00     0.028 A 
HETATM    5  C13 VIA     1     -52.294  -6.148  -9.342  1.00  0.00     0.080 A 
HETATM    6  C14 VIA     1     -52.875  -7.193  -8.621  1.00  0.00     0.043 A 
ENDROOT
BRANCH   1   7
HETATM    7  C7  VIA     1     -54.781  -8.604  -7.910  1.00  0.00     0.144 A 
HETATM    8  N3  VIA     1     -54.527  -8.592  -6.629  1.00  0.00    -0.226 NA
HETATM    9  C6  VIA     1     -55.083  -9.660  -5.925  1.00  0.00     0.119 A 
HETATM   10  C4  VIA     1     -55.020  -9.964  -4.555  1.00  0.00     0.086 A 
HETATM   11  C5  VIA     1     -55.833 -10.636  -6.506  1.00  0.00     0.151 A 
HETATM   12  N1  VIA     1     -55.707 -11.093  -4.290  1.00  0.00    -0.174 NA
HETATM   13  N2  VIA     1     -56.190 -11.476  -5.499  1.00  0.00    -0.266 N 
HETATM   14  C22 VIA     1     -56.992 -12.670  -5.608  1.00  0.00     0.180 C 
HETATM   15  C8  VIA     1     -56.118 -10.657  -7.893  1.00  0.00     0.278 A 
HETATM   16  N4  VIA     1     -55.535  -9.590  -8.538  1.00  0.00    -0.305 N 
HETATM   17  O1  VIA     1     -56.795 -11.497  -8.475  1.00  0.00    -0.265 OA
HETATM   18  H8  VIA     1     -55.714  -9.527  -9.531  1.00  0.00     0.170 HD
BRANCH  10  19
HETATM   19  C3  VIA     1     -54.320  -9.221  -3.471  1.00  0.00     0.063 C 
BRANCH  19  20
HETATM   20  C2  VIA     1     -55.014  -7.916  -3.073  1.00  0.00     0.002 C 
HETATM   21  C1  VIA     1     -54.825  -7.562  -1.605  1.00  0.00     0.005 C 
ENDBRANCH  19  20
ENDBRANCH  10  19
ENDBRANCH   1   7
BRANCH   2  22
HETATM   22  O4  VIA     1     -56.334  -7.100  -9.842  1.00  0.00    -0.351 OA
BRANCH  22  23
HETATM   23  C20 VIA     1     -57.351  -6.128  -9.589  1.00  0.00     0.171 C 
HETATM   24  C21 VIA     1     -57.371  -5.737  -8.122  1.00  0.00     0.034 C 
ENDBRANCH  22  23
ENDBRANCH   2  22
BRANCH   5  25
HETATM   25  S1  VIA     1     -50.563  -5.789  -9.129  1.00  0.00     0.261 S 
HETATM   26  O2  VIA     1     -49.922  -5.974 -10.413  1.00  0.00    -0.200 OA
HETATM   27  O3  VIA     1     -50.473  -4.524  -8.428  1.00  0.00    -0.200 OA
BRANCH  25  28
HETATM   28  N5  VIA     1     -50.027  -7.005  -8.081  1.00  0.00    -0.303 N 
HETATM   29  C15 VIA     1     -49.230  -8.110  -8.681  1.00  0.00     0.165 C 
HETATM   30  C16 VIA     1     -49.128  -9.288  -7.690  1.00  0.00     0.292 C 
HETATM   31  N6  VIA     1     -48.545  -8.877  -6.394  1.00  0.00     0.087 N 
HETATM   32  C17 VIA     1     -49.359  -7.783  -5.817  1.00  0.00     0.292 C 
HETATM   33  C19 VIA     1     -48.488 -10.012  -5.474  1.00  0.00     0.310 C 
HETATM   34  C18 VIA     1     -49.466  -6.575  -6.769  1.00  0.00     0.165 C 
ENDBRANCH  25  28
ENDBRANCH   5  25
TORSDOF 7
ENDMDL
