MODEL 1
REMARK VINA RESULT:      -6.5      0.000      0.000
REMARK  7 active torsions:
REMARK  status: ('A' for Active; 'I' for Inactive)
REMARK    1  A    between atoms: C2_2  and  C3_3 
REMARK    2  A    between atoms: C3_3  and  C4_4 
REMARK    3  A    between atoms: C7_10  and  C9_14 
REMARK    4  A    between atoms: C10_15  and  O4_30 
REMARK    5  A    between atoms: C13_18  and  S1_20 
REMARK    6  A    between atoms: S1_20  and  N5_23 
REMARK    7  A    between atoms: O4_30  and  C20_31 
ROOT
HETATM    1  C9  VIA     1     -61.724  -3.474 -22.197  1.00  0.00     0.045 A 
HETATM    2  C10 VIA     1     -62.658  -2.454 -22.496  1.00  0.00     0.082 A 
HETATM    3  C11 VIA     1     -62.193  -1.223 -22.982  1.00  0.00     0.039 A 
HETATM    4  C12 VIA     1     -60.828  -0.992 -23.172  1.00  0.00     0.028 A 
HETATM    5  C13 VIA     1     -59.911  -1.996 -22.870  1.00  0.00     0.080 A 
HETATM    6  C14 VIA     1     -60.353  -3.237 -22.409  1.00  0.00     0.043 A 
ENDROOT
BRANCH   1   7
HETATM    7  C7  VIA     1     -62.088  -4.827 -21.639  1.00  0.00     0.144 A 
HETATM    8  N3  VIA     1     -62.574  -4.911 -20.430  1.00  0.00    -0.226 NA
HETATM    9  C6  VIA     1     -62.878  -6.210 -20.023  1.00  0.00     0.119 A 
HETATM   10  C4  VIA     1     -63.410  -6.671 -18.808  1.00  0.00     0.086 A 
HETATM   11  C5  VIA     1     -62.694  -7.307 -20.808  1.00  0.00     0.151 A 
HETATM   12  N1  VIA     1     -63.553  -8.011 -18.834  1.00  0.00    -0.174 NA
HETATM   13  N2  VIA     1     -63.109  -8.367 -20.065  1.00  0.00    -0.266 N 
HETATM   14  C22 VIA     1     -63.113  -9.755 -20.459  1.00  0.00     0.180 C 
HETATM   15  C8  VIA     1     -62.171  -7.228 -22.122  1.00  0.00     0.278 A 
HETATM   16  N4  VIA     1     -61.878  -5.927 -22.464  1.00  0.00    -0.305 N 
HETATM   17  O1  VIA     1     -61.994  -8.171 -22.883  1.00  0.00    -0.265 OA
HETATM   18  H8  VIA     1     -61.521  -5.789 -23.400  1.00  0.00     0.170 HD
BRANCH  10  19
HETATM   19  C3  VIA     1     -63.789  -5.883 -17.603  1.00  0.00     0.063 C 
BRANCH  19  20
HETATM   20  C2  VIA     1     -62.999  -6.262 -16.348  1.00  0.00     0.002 C 
HETATM   21  C1  VIA     1     -63.485  -5.545 -15.096  1.00  0.00     0.005 C 
ENDBRANCH  19  20
ENDBRANCH  10  19
ENDBRANCH   1   7
BRANCH   2  22
HETATM   22  O4  VIA     1     -63.984  -2.729 -22.278  1.00  0.00    -0.351 OA
BRANCH  22  23
HETATM   23  C20 VIA     1     -64.825  -1.766 -21.639  1.00  0.00     0.171 C 
HETATM   24  C21 VIA     1     -64.577  -1.743 -20.141  1.00  0.00     0.034 C 
ENDBRANCH  22  23
ENDBRANCH   2  22
BRANCH   5  25
HETATM   25  S1  VIA     1     -58.172  -1.726 -23.141  1.00  0.00     0.261 S 
HETATM   26  O2  VIA     1     -57.984  -0.308 -23.356  1.00  0.00    -0.200 OA
HETATM   27  O3  VIA     1     -57.463  -2.419 -22.085  1.00  0.00    -0.200 OA
BRANCH  25  28
HETATM   28  N5  VIA     1     -57.863  -2.535 -24.595  1.00  0.00    -0.303 N 
HETATM   29  C15 VIA     1     -57.419  -1.706 -25.748  1.00  0.00     0.165 C 
HETATM   30  C16 VIA     1     -57.524  -2.517 -27.056  1.00  0.00     0.292 C 
HETATM   31  N6  VIA     1     -56.747  -3.774 -26.996  1.00  0.00     0.087 N 
HETATM   32  C17 VIA     1     -57.213  -4.583 -25.847  1.00  0.00     0.292 C 
HETATM   33  C19 VIA     1     -56.892  -4.527 -28.242  1.00  0.00     0.310 C 
HETATM   34  C18 VIA     1     -57.101  -3.814 -24.514  1.00  0.00     0.165 C 
ENDBRANCH  25  28
ENDBRANCH   5  25
TORSDOF 7
ENDMDL
