MODEL 1
REMARK VINA RESULT:      -7.0      0.000      0.000
REMARK  7 active torsions:
REMARK  status: ('A' for Active; 'I' for Inactive)
REMARK    1  A    between atoms: C2_2  and  C3_3 
REMARK    2  A    between atoms: C3_3  and  C4_4 
REMARK    3  A    between atoms: C7_10  and  C9_14 
REMARK    4  A    between atoms: C10_15  and  O4_30 
REMARK    5  A    between atoms: C13_18  and  S1_20 
REMARK    6  A    between atoms: S1_20  and  N5_23 
REMARK    7  A    between atoms: O4_30  and  C20_31 
ROOT
HETATM    1  C9  VIA     1     -54.178  -7.501  -8.801  1.00  0.00     0.045 A 
HETATM    2  C10 VIA     1     -54.910  -6.830  -9.810  1.00  0.00     0.082 A 
HETATM    3  C11 VIA     1     -54.285  -5.810 -10.543  1.00  0.00     0.039 A 
HETATM    4  C12 VIA     1     -52.959  -5.449 -10.290  1.00  0.00     0.028 A 
HETATM    5  C13 VIA     1     -52.245  -6.106  -9.291  1.00  0.00     0.080 A 
HETATM    6  C14 VIA     1     -52.838  -7.141  -8.567  1.00  0.00     0.043 A 
ENDROOT
BRANCH   1   7
HETATM    7  C7  VIA     1     -54.740  -8.589  -7.921  1.00  0.00     0.144 A 
HETATM    8  N3  VIA     1     -54.486  -8.572  -6.640  1.00  0.00    -0.226 NA
HETATM    9  C6  VIA     1     -55.061  -9.625  -5.928  1.00  0.00     0.119 A 
HETATM   10  C4  VIA     1     -55.004  -9.919  -4.556  1.00  0.00     0.086 A 
HETATM   11  C5  VIA     1     -55.829 -10.591  -6.502  1.00  0.00     0.151 A 
HETATM   12  N1  VIA     1     -55.711 -11.034  -4.283  1.00  0.00    -0.174 NA
HETATM   13  N2  VIA     1     -56.200 -11.417  -5.489  1.00  0.00    -0.266 N 
HETATM   14  C22 VIA     1     -57.025 -12.597  -5.589  1.00  0.00     0.180 C 
HETATM   15  C8  VIA     1     -56.114 -10.617  -7.888  1.00  0.00     0.278 A 
HETATM   16  N4  VIA     1     -55.512  -9.566  -8.542  1.00  0.00    -0.305 N 
HETATM   17  O1  VIA     1     -56.807 -11.449  -8.464  1.00  0.00    -0.265 OA
HETATM   18  H8  VIA     1     -55.690  -9.507  -9.535  1.00  0.00     0.170 HD
BRANCH  10  19
HETATM   19  C3  VIA     1     -54.289  -9.181  -3.478  1.00  0.00     0.063 C 
BRANCH  19  20
HETATM   20  C2  VIA     1     -54.959  -7.861  -3.090  1.00  0.00     0.002 C 
HETATM   21  C1  VIA     1     -54.894  -7.574  -1.596  1.00  0.00     0.005 C 
ENDBRANCH  19  20
ENDBRANCH  10  19
ENDBRANCH   1   7
BRANCH   2  22
HETATM   22  O4  VIA     1     -56.212  -7.215 -10.007  1.00  0.00    -0.351 OA
BRANCH  22  23
HETATM   23  C20 VIA     1     -57.280  -6.301  -9.754  1.00  0.00     0.171 C 
HETATM   24  C21 VIA     1     -57.254  -5.827  -8.311  1.00  0.00     0.034 C 
ENDBRANCH  22  23
ENDBRANCH   2  22
BRANCH   5  25
HETATM   25  S1  VIA     1     -50.544  -5.679  -8.983  1.00  0.00     0.261 S 
HETATM   26  O2  VIA     1     -49.840  -5.773 -10.244  1.00  0.00    -0.200 OA
HETATM   27  O3  VIA     1     -50.544  -4.447  -8.222  1.00  0.00    -0.200 OA
BRANCH  25  28
HETATM   28  N5  VIA     1     -49.997  -6.919  -7.969  1.00  0.00    -0.303 N 
HETATM   29  C15 VIA     1     -49.232  -8.026  -8.607  1.00  0.00     0.165 C 
HETATM   30  C16 VIA     1     -49.120  -9.220  -7.637  1.00  0.00     0.292 C 
HETATM   31  N6  VIA     1     -48.496  -8.837  -6.352  1.00  0.00     0.087 N 
HETATM   32  C17 VIA     1     -49.278  -7.742  -5.736  1.00  0.00     0.292 C 
HETATM   33  C19 VIA     1     -48.430  -9.987  -5.452  1.00  0.00     0.310 C 
HETATM   34  C18 VIA     1     -49.394  -6.517  -6.666  1.00  0.00     0.165 C 
ENDBRANCH  25  28
ENDBRANCH   5  25
TORSDOF 7
ENDMDL
