MODEL 1
REMARK VINA RESULT:    -8.921      0.000      0.000
REMARK INTER + INTRA:         -10.517
REMARK INTER:                 -10.224
REMARK INTRA:                  -0.293
REMARK UNBOUND:                -0.293
REMARK  4 active torsions:
REMARK  status: ('A' for Active; 'I' for Inactive)
REMARK    1  A    between atoms: C3_3  and  O5_20 
REMARK    2  A    between atoms: C6_6  and  C7_7 
REMARK    3  A    between atoms: C11_12  and  O4_19 
REMARK    4  A    between atoms: C13_14  and  O3_18 
ROOT
HETATM    1  C7  API     1      57.787  29.456 -22.445  1.00  0.00     0.090 A 
HETATM    2  C8  API     1      58.522  30.567 -22.598  1.00  0.00     0.094 A 
HETATM    3  C9  API     1      57.887  31.876 -22.392  1.00  0.00     0.190 A 
HETATM    4  O1  API     1      58.510  32.923 -22.524  1.00  0.00    -0.287 OA
HETATM    5  C10 API     1      56.467  31.879 -22.021  1.00  0.00     0.081 A 
HETATM    6  C11 API     1      55.767  33.070 -21.802  1.00  0.00     0.085 A 
HETATM    7  C12 API     1      54.420  33.037 -21.449  1.00  0.00     0.074 A 
HETATM    8  C13 API     1      53.783  31.806 -21.316  1.00  0.00     0.071 A 
HETATM    9  C14 API     1      54.470  30.614 -21.532  1.00  0.00     0.075 A 
HETATM   10  C15 API     1      55.818  30.653 -21.885  1.00  0.00     0.095 A 
HETATM   11  O2  API     1      56.449  29.451 -22.083  1.00  0.00    -0.309 OA
ENDROOT
BRANCH   1  12
HETATM   12  C6  API     1      58.368  28.111 -22.627  1.00  0.00    -0.002 A 
HETATM   13  C1  API     1      57.641  27.120 -23.306  1.00  0.00     0.017 A 
HETATM   14  C2  API     1      58.176  25.842 -23.499  1.00  0.00     0.037 A 
HETATM   15  C3  API     1      59.447  25.553 -23.017  1.00  0.00     0.065 A 
HETATM   16  C4  API     1      60.190  26.520 -22.351  1.00  0.00     0.037 A 
HETATM   17  C5  API     1      59.655  27.796 -22.160  1.00  0.00     0.017 A 
BRANCH  15  18
HETATM   18  O5  API     1      60.009  24.323 -23.181  1.00  0.00    -0.361 OA
HETATM   19  H10 API     1      60.974  24.408 -23.103  1.00  0.00     0.217 HD
ENDBRANCH  15  18
ENDBRANCH   1  12
BRANCH   6  20
HETATM   20  O4  API     1      56.344  34.306 -21.917  1.00  0.00    -0.360 OA
HETATM   21  H9  API     1      56.521  34.648 -21.011  1.00  0.00     0.217 HD
ENDBRANCH   6  20
BRANCH   8  22
HETATM   22  O3  API     1      52.466  31.723 -20.973  1.00  0.00    -0.361 OA
HETATM   23  H8  API     1      52.337  30.942 -20.410  1.00  0.00     0.217 HD
ENDBRANCH   8  22
TORSDOF 4
ENDMDL
