MODEL 1
REMARK VINA RESULT:    -9.369      0.000      0.000
REMARK INTER + INTRA:         -14.819
REMARK INTER:                 -13.203
REMARK INTRA:                  -1.616
REMARK UNBOUND:                -1.616
REMARK  10 active torsions:
REMARK  status: ('A' for Active; 'I' for Inactive)
REMARK    1  A    between atoms: C4_4  and  C7_7 
REMARK    2  A    between atoms: C11_12  and  O11_32 
REMARK    3  A    between atoms: C12_13  and  O10_31 
REMARK    4  A    between atoms: C13_14  and  O3_18 
REMARK    5  A    between atoms: O3_18  and  C16_19 
REMARK    6  A    between atoms: C17_20  and  O9_30 
REMARK    7  A    between atoms: C18_21  and  O8_29 
REMARK    8  A    between atoms: C19_22  and  O7_28 
REMARK    9  A    between atoms: C20_23  and  C21_25 
REMARK   10  A    between atoms: C21_25  and  O6_27 
ROOT
HETATM    1  C7  BAI     1      57.551  29.147 -22.909  1.00  0.00     0.090 A 
HETATM    2  C8  BAI     1      58.630  29.935 -23.038  1.00  0.00     0.094 A 
HETATM    3  C9  BAI     1      58.528  31.348 -22.649  1.00  0.00     0.190 A 
HETATM    4  O1  BAI     1      59.478  32.117 -22.740  1.00  0.00    -0.287 OA
HETATM    5  C10 BAI     1      57.234  31.810 -22.141  1.00  0.00     0.084 A 
HETATM    6  C11 BAI     1      57.033  33.134 -21.749  1.00  0.00     0.118 A 
HETATM    7  C12 BAI     1      55.784  33.538 -21.272  1.00  0.00     0.134 A 
HETATM    8  C13 BAI     1      54.736  32.621 -21.172  1.00  0.00     0.110 A 
HETATM    9  C14 BAI     1      54.939  31.302 -21.589  1.00  0.00     0.078 A 
HETATM   10  C15 BAI     1      56.188  30.896 -22.063  1.00  0.00     0.096 A 
HETATM   11  O2  BAI     1      56.319  29.584 -22.442  1.00  0.00    -0.309 OA
ENDROOT
BRANCH   8  12
HETATM   12  O3  BAI     1      53.467  32.926 -20.766  1.00  0.00    -0.315 OA
BRANCH  12  13
HETATM   13  C16 BAI     1      52.429  32.245 -21.481  1.00  0.00     0.299 C 
HETATM   14  C17 BAI     1      51.150  32.261 -20.611  1.00  0.00     0.205 C 
HETATM   15  C18 BAI     1      50.034  33.027 -21.308  1.00  0.00     0.183 C 
HETATM   16  C19 BAI     1      50.553  34.383 -21.775  1.00  0.00     0.189 C 
HETATM   17  C20 BAI     1      51.738  34.201 -22.740  1.00  0.00     0.253 C 
HETATM   18  O4  BAI     1      52.219  32.850 -22.767  1.00  0.00    -0.340 OA
BRANCH  14  19
HETATM   19  O9  BAI     1      50.663  30.935 -20.331  1.00  0.00    -0.388 OA
HETATM   20  H16 BAI     1      50.139  30.685 -21.121  1.00  0.00     0.210 HD
ENDBRANCH  14  19
BRANCH  15  21
HETATM   21  O8  BAI     1      48.935  33.231 -20.400  1.00  0.00    -0.390 OA
HETATM   22  H15 BAI     1      49.332  33.681 -19.627  1.00  0.00     0.210 HD
ENDBRANCH  15  21
BRANCH  16  23
HETATM   23  O7  BAI     1      49.472  35.076 -22.422  1.00  0.00    -0.390 OA
HETATM   24  H14 BAI     1      49.848  35.940 -22.687  1.00  0.00     0.210 HD
ENDBRANCH  16  23
BRANCH  17  25
HETATM   25  C21 BAI     1      52.857  35.231 -22.525  1.00  0.00     0.172 C 
HETATM   26  O5  BAI     1      53.713  35.563 -23.333  1.00  0.00    -0.648 OA
BRANCH  25  27
HETATM   27  O6  BAI     1      52.806  35.859 -21.334  1.00  0.00    -0.774 OA
HETATM   28  H13 BAI     1      52.228  36.634 -21.496  1.00  0.00     0.167 HD
ENDBRANCH  25  27
ENDBRANCH  17  25
ENDBRANCH  12  13
ENDBRANCH   8  12
BRANCH   7  29
HETATM   29  O10 BAI     1      55.626  34.858 -20.929  1.00  0.00    -0.356 OA
HETATM   30  H17 BAI     1      56.397  35.302 -21.349  1.00  0.00     0.218 HD
ENDBRANCH   7  29
BRANCH   6  31
HETATM   31  O11 BAI     1      58.008  34.100 -21.814  1.00  0.00    -0.357 OA
HETATM   32  H18 BAI     1      57.586  34.929 -22.145  1.00  0.00     0.217 HD
ENDBRANCH   6  31
BRANCH   1  33
HETATM   33  C4  BAI     1      57.582  27.722 -23.292  1.00  0.00    -0.002 A 
HETATM   34  C3  BAI     1      56.409  27.022 -23.614  1.00  0.00     0.014 A 
HETATM   35  C2  BAI     1      56.459  25.674 -23.981  1.00  0.00     0.001 A 
HETATM   36  C1  BAI     1      57.682  25.011 -24.037  1.00  0.00     0.000 A 
HETATM   37  C6  BAI     1      58.856  25.694 -23.731  1.00  0.00     0.001 A 
HETATM   38  C5  BAI     1      58.807  27.042 -23.364  1.00  0.00     0.014 A 
ENDBRANCH   1  33
TORSDOF 10
ENDMDL
