MODEL 1
REMARK VINA RESULT:    -9.585      0.000      0.000
REMARK INTER + INTRA:         -10.783
REMARK INTER:                 -10.706
REMARK INTRA:                  -0.077
REMARK UNBOUND:                -0.077
REMARK  2 active torsions:
REMARK  status: ('A' for Active; 'I' for Inactive)
REMARK    1  A    between atoms: O1_2  and  C2_3 
REMARK    2  A    between atoms: C3_4  and  O4_24 
ROOT
HETATM    1  C2  BER     1      58.015  27.263 -23.553  1.00  0.00     0.102 A 
HETATM    2  C3  BER     1      58.364  28.526 -23.038  1.00  0.00     0.114 A 
HETATM    3  C4  BER     1      57.357  29.465 -22.694  1.00  0.00     0.026 A 
HETATM    4  C5  BER     1      57.653  30.752 -22.230  1.00  0.00     0.106 A 
HETATM    5  N1  BER     1      56.690  31.644 -21.905  1.00  0.00    -0.355 N 
HETATM    6  C6  BER     1      55.370  31.316 -21.992  1.00  0.00     0.046 A 
HETATM    7  C7  BER     1      55.020  30.041 -22.460  1.00  0.00     0.043 A 
HETATM    8  C8  BER     1      56.005  29.113 -22.814  1.00  0.00    -0.019 A 
HETATM    9  C9  BER     1      55.668  27.841 -23.289  1.00  0.00     0.015 A 
HETATM   10  C10 BER     1      56.661  26.931 -23.659  1.00  0.00     0.040 A 
HETATM   11  C11 BER     1      54.395  32.361 -21.616  1.00  0.00    -0.000 A 
HETATM   12  C12 BER     1      53.064  32.059 -21.269  1.00  0.00     0.054 A 
HETATM   13  C13 BER     1      52.198  33.093 -20.969  1.00  0.00     0.105 A 
HETATM   14  C14 BER     1      52.593  34.404 -20.997  1.00  0.00     0.105 A 
HETATM   15  C15 BER     1      53.882  34.760 -21.319  1.00  0.00     0.047 A 
HETATM   16  C16 BER     1      54.791  33.730 -21.613  1.00  0.00    -0.041 A 
HETATM   17  C17 BER     1      56.216  34.061 -21.960  1.00  0.00     0.060 C 
HETATM   18  C18 BER     1      57.115  32.976 -21.396  1.00  0.00     0.133 C 
HETATM   19  O2  BER     1      51.589  35.259 -20.675  1.00  0.00    -0.323 OA
HETATM   20  C19 BER     1      50.504  34.333 -20.442  1.00  0.00     0.352 A 
HETATM   21  O3  BER     1      50.892  32.952 -20.623  1.00  0.00    -0.323 OA
ENDROOT
BRANCH   1  22
HETATM   22  O1  BER     1      59.027  26.435 -23.952  1.00  0.00    -0.353 OA
HETATM   23  C1  BER     1      59.210  25.204 -23.261  1.00  0.00     0.210 C 
ENDBRANCH   1  22
BRANCH   2  24
HETATM   24  O4  BER     1      59.651  28.994 -22.876  1.00  0.00    -0.352 OA
HETATM   25  C20 BER     1      60.391  28.475 -21.771  1.00  0.00     0.210 C 
ENDBRANCH   2  24
TORSDOF 2
ENDMDL
