MODEL 1
REMARK VINA RESULT:    -8.539      0.000      0.000
REMARK INTER + INTRA:         -14.551
REMARK INTER:                 -13.032
REMARK INTRA:                  -1.520
REMARK UNBOUND:                -1.520
REMARK  10 active torsions:
REMARK  status: ('A' for Active; 'I' for Inactive)
REMARK    1  A    between atoms: O1_2  and  C2_3 
REMARK    2  A    between atoms: C3_4  and  O6_27 
REMARK    3  A    between atoms: C6_7  and  C8_9 
REMARK    4  A    between atoms: C9_10  and  C10_11 
REMARK    5  A    between atoms: C10_11  and  C11_13 
REMARK    6  A    between atoms: C11_13  and  C12_14 
REMARK    7  A    between atoms: C12_14  and  C13_16 
REMARK    8  A    between atoms: C14_17  and  C15_18 
REMARK    9  A    between atoms: C17_20  and  O5_25 
REMARK   10  A    between atoms: C18_21  and  O4_24 
ROOT
HETATM    1  C11 CUR     1      51.864  27.285 -21.293  1.00  0.00     0.165 C 
ENDROOT
BRANCH   1   2
HETATM    2  C10 CUR     1      52.439  28.673 -21.433  1.00  0.00     0.156 C 
HETATM    3  O2  CUR     1      51.741  29.684 -21.491  1.00  0.00    -0.293 OA
BRANCH   2   4
HETATM    4  C9  CUR     1      53.916  28.848 -21.537  1.00  0.00     0.051 C 
HETATM    5  C8  CUR     1      54.548  29.411 -22.577  1.00  0.00     0.015 C 
BRANCH   5   6
HETATM    6  C6  CUR     1      56.009  29.574 -22.634  1.00  0.00    -0.033 A 
HETATM    7  C5  CUR     1      56.869  28.482 -22.811  1.00  0.00     0.014 A 
HETATM    8  C4  CUR     1      58.249  28.674 -22.890  1.00  0.00     0.040 A 
HETATM    9  C3  CUR     1      58.772  29.963 -22.802  1.00  0.00     0.099 A 
HETATM   10  C2  CUR     1      57.933  31.073 -22.640  1.00  0.00     0.102 A 
HETATM   11  C7  CUR     1      56.550  30.868 -22.564  1.00  0.00     0.051 A 
BRANCH   9  12
HETATM   12  O6  CUR     1      60.126  30.153 -22.879  1.00  0.00    -0.358 OA
HETATM   13  H20 CUR     1      60.375  30.312 -23.802  1.00  0.00     0.217 HD
ENDBRANCH   9  12
BRANCH  10  14
HETATM   14  O1  CUR     1      58.552  32.293 -22.571  1.00  0.00    -0.353 OA
HETATM   15  C1  CUR     1      57.812  33.380 -22.036  1.00  0.00     0.210 C 
ENDBRANCH  10  14
ENDBRANCH   5   6
ENDBRANCH   2   4
ENDBRANCH   1   2
BRANCH   1  16
HETATM   16  C12 CUR     1      51.630  26.551 -22.590  1.00  0.00     0.156 C 
HETATM   17  O3  CUR     1      50.496  26.432 -23.053  1.00  0.00    -0.293 OA
BRANCH  16  18
HETATM   18  C13 CUR     1      52.801  25.901 -23.247  1.00  0.00     0.051 C 
HETATM   19  C14 CUR     1      53.345  26.436 -24.350  1.00  0.00     0.015 C 
BRANCH  19  20
HETATM   20  C15 CUR     1      54.504  25.853 -25.035  1.00  0.00    -0.033 A 
HETATM   21  C16 CUR     1      55.664  25.481 -24.334  1.00  0.00     0.051 A 
HETATM   22  C17 CUR     1      56.762  24.948 -25.014  1.00  0.00     0.102 A 
HETATM   23  C18 CUR     1      56.686  24.802 -26.404  1.00  0.00     0.099 A 
HETATM   24  C19 CUR     1      55.556  25.180 -27.116  1.00  0.00     0.040 A 
HETATM   25  C20 CUR     1      54.465  25.714 -26.429  1.00  0.00     0.014 A 
BRANCH  22  26
HETATM   26  O5  CUR     1      57.945  24.542 -24.452  1.00  0.00    -0.353 OA
HETATM   27  C21 CUR     1      58.974  25.520 -24.358  1.00  0.00     0.210 C 
ENDBRANCH  22  26
BRANCH  23  28
HETATM   28  O4  CUR     1      57.744  24.281 -27.099  1.00  0.00    -0.358 OA
HETATM   29  H16 CUR     1      57.754  23.333 -26.865  1.00  0.00     0.217 HD
ENDBRANCH  23  28
ENDBRANCH  19  20
ENDBRANCH  16  18
ENDBRANCH   1  16
TORSDOF 10
ENDMDL
