MODEL 1
REMARK VINA RESULT:    -6.211      0.000      0.000
REMARK INTER + INTRA:          -7.355
REMARK INTER:                  -7.300
REMARK INTRA:                  -0.055
REMARK UNBOUND:                -0.055
REMARK  5 active torsions:
REMARK  status: ('A' for Active; 'I' for Inactive)
REMARK    1  A    between atoms: C2_2  and  C7_10 
REMARK    2  A    between atoms: C4_4  and  O3_9 
REMARK    3  A    between atoms: C5_5  and  O2_8 
REMARK    4  A    between atoms: C6_6  and  O1_7 
REMARK    5  A    between atoms: C7_10  and  O5_12 
ROOT
HETATM    1  C1  GAL     1      43.717  28.737  -8.911  1.00  0.00     0.057 A 
HETATM    2  C2  GAL     1      43.561  28.742 -10.309  1.00  0.00     0.043 A 
HETATM    3  C3  GAL     1      42.367  29.201 -10.887  1.00  0.00     0.057 A 
HETATM    4  C4  GAL     1      41.343  29.651 -10.065  1.00  0.00     0.102 A 
HETATM    5  C5  GAL     1      41.494  29.648  -8.684  1.00  0.00     0.132 A 
HETATM    6  C6  GAL     1      42.676  29.194  -8.109  1.00  0.00     0.102 A 
ENDROOT
BRANCH   2   7
HETATM    7  C7  GAL     1      44.635  28.268 -11.214  1.00  0.00     0.176 C 
HETATM    8  O4  GAL     1      44.814  28.622 -12.364  1.00  0.00    -0.646 OA
BRANCH   7   9
HETATM    9  O5  GAL     1      45.442  27.363 -10.631  1.00  0.00    -0.773 OA
HETATM   10  H6  GAL     1      46.204  27.308 -11.246  1.00  0.00     0.167 HD
ENDBRANCH   7   9
ENDBRANCH   2   7
BRANCH   6  11
HETATM   11  O1  GAL     1      42.767  29.216  -6.745  1.00  0.00    -0.358 OA
HETATM   12  H3  GAL     1      42.387  28.389  -6.397  1.00  0.00     0.217 HD
ENDBRANCH   6  11
BRANCH   4  13
HETATM   13  O3  GAL     1      40.181  30.098 -10.623  1.00  0.00    -0.358 OA
HETATM   14  H5  GAL     1      39.485  29.860  -9.977  1.00  0.00     0.217 HD
ENDBRANCH   4  13
BRANCH   5  15
HETATM   15  O2  GAL     1      40.467  30.099  -7.901  1.00  0.00    -0.356 OA
HETATM   16  H4  GAL     1      40.598  29.644  -7.044  1.00  0.00     0.218 HD
ENDBRANCH   5  15
TORSDOF 5
ENDMDL
