MODEL 1
REMARK VINA RESULT:    -9.549      0.000      0.000
REMARK INTER + INTRA:         -13.350
REMARK INTER:                 -12.341
REMARK INTRA:                  -1.010
REMARK UNBOUND:                -1.010
REMARK  6 active torsions:
REMARK  status: ('A' for Active; 'I' for Inactive)
REMARK    1  A    between atoms: C3_3  and  C4_4 
REMARK    2  A    between atoms: C4_4  and  C5_5 
REMARK    3  A    between atoms: C5_5  and  C6_6 
REMARK    4  A    between atoms: C6_6  and  C8_8 
REMARK    5  A    between atoms: C6_6  and  O2_31 
REMARK    6  A    between atoms: C23_23  and  O1_27 
ROOT
HETATM    1  C8  GIN     1      25.610  36.566 -11.063  1.00  0.00     0.024 C 
HETATM    2  C9  GIN     1      27.030  36.616 -10.495  1.00  0.00     0.009 C 
HETATM    3  C10 GIN     1      27.892  36.239 -11.695  1.00  0.00     0.011 C 
HETATM    4  C11 GIN     1      27.082  35.171 -12.489  1.00  0.00    -0.032 C 
HETATM    5  C12 GIN     1      25.628  35.232 -11.870  1.00  0.00     0.001 C 
HETATM    6  C13 GIN     1      25.254  33.965 -11.109  1.00  0.00     0.006 C 
HETATM    7  C14 GIN     1      25.393  32.704 -11.964  1.00  0.00     0.006 C 
HETATM    8  C15 GIN     1      26.637  32.664 -12.891  1.00  0.00     0.003 C 
HETATM    9  C16 GIN     1      27.740  33.690 -12.445  1.00  0.00    -0.032 C 
HETATM   10  C17 GIN     1      28.947  33.613 -13.428  1.00  0.00     0.011 C 
HETATM   11  C18 GIN     1      29.445  32.200 -13.739  1.00  0.00     0.007 C 
HETATM   12  C19 GIN     1      28.307  31.315 -14.287  1.00  0.00     0.004 C 
HETATM   13  C20 GIN     1      27.128  31.191 -13.260  1.00  0.00    -0.035 C 
HETATM   14  C21 GIN     1      25.936  30.426 -13.929  1.00  0.00     0.012 C 
HETATM   15  C22 GIN     1      26.281  29.667 -15.215  1.00  0.00     0.033 C 
HETATM   16  C23 GIN     1      27.629  28.959 -15.148  1.00  0.00     0.126 C 
HETATM   17  C24 GIN     1      28.808  29.962 -14.934  1.00  0.00    -0.017 C 
HETATM   18  C25 GIN     1      29.967  29.299 -14.159  1.00  0.00     0.018 C 
HETATM   19  C26 GIN     1      29.370  30.301 -16.346  1.00  0.00     0.018 C 
HETATM   20  C27 GIN     1      27.553  30.394 -12.002  1.00  0.00     0.016 C 
HETATM   21  C28 GIN     1      28.280  33.319 -11.025  1.00  0.00     0.016 C 
HETATM   22  C29 GIN     1      26.955  35.726 -13.941  1.00  0.00     0.016 C 
ENDROOT
BRANCH   1  23
HETATM   23  C6  GIN     1      24.482  36.824 -10.029  1.00  0.00     0.058 C 
HETATM   24  C7  GIN     1      24.799  36.140  -8.691  1.00  0.00     0.046 C 
BRANCH  23  25
HETATM   25  C5  GIN     1      23.076  36.418 -10.554  1.00  0.00     0.041 C 
BRANCH  25  26
HETATM   26  C4  GIN     1      22.104  35.715  -9.598  1.00  0.00     0.030 C 
BRANCH  26  27
HETATM   27  C3  GIN     1      21.933  34.241  -9.824  1.00  0.00    -0.025 C 
HETATM   28  C2  GIN     1      22.054  33.258  -8.911  1.00  0.00    -0.091 C 
HETATM   29  C1  GIN     1      21.825  31.819  -9.292  1.00  0.00     0.042 C 
HETATM   30  C30 GIN     1      22.422  33.466  -7.468  1.00  0.00     0.042 C 
ENDBRANCH  26  27
ENDBRANCH  25  26
ENDBRANCH  23  25
BRANCH  23  31
HETATM   31  O2  GIN     1      24.393  38.235  -9.774  1.00  0.00    -0.390 OA
HETATM   32  H49 GIN     1      23.769  38.617 -10.414  1.00  0.00     0.210 HD
ENDBRANCH  23  31
ENDBRANCH   1  23
BRANCH  16  33
HETATM   33  O1  GIN     1      27.583  27.963 -14.129  1.00  0.00    -0.395 OA
HETATM   34  H39 GIN     1      27.512  28.418 -13.272  1.00  0.00     0.210 HD
ENDBRANCH  16  33
TORSDOF 6
ENDMDL
