MODEL 1
REMARK VINA RESULT:    -8.555      0.000      0.000
REMARK INTER + INTRA:         -16.963
REMARK INTER:                 -14.056
REMARK INTRA:                  -2.907
REMARK UNBOUND:                -2.907
REMARK  15 active torsions:
REMARK  status: ('A' for Active; 'I' for Inactive)
REMARK    1  A    between atoms: C5_5  and  C42_56 
REMARK    2  A    between atoms: C15_16  and  O2_29 
REMARK    3  A    between atoms: O2_29  and  C28_30 
REMARK    4  A    between atoms: C29_31  and  O8_41 
REMARK    5  A    between atoms: C30_32  and  O7_40 
REMARK    6  A    between atoms: C31_33  and  O6_39 
REMARK    7  A    between atoms: C32_34  and  C33_36 
REMARK    8  A    between atoms: C33_36  and  O5_38 
REMARK    9  A    between atoms: O8_41  and  C34_42 
REMARK   10  A    between atoms: C35_43  and  O14_53 
REMARK   11  A    between atoms: C36_44  and  O13_52 
REMARK   12  A    between atoms: C37_45  and  O12_51 
REMARK   13  A    between atoms: C38_46  and  C39_48 
REMARK   14  A    between atoms: C39_48  and  O11_50 
REMARK   15  A    between atoms: C42_56  and  O16_58 
ROOT
HETATM    1  C1  GRA     1      54.701  53.563 -20.482  1.00  0.00     0.016 C 
HETATM    2  C2  GRA     1      54.362  53.069 -21.919  1.00  0.00    -0.036 C 
HETATM    3  C3  GRA     1      52.852  52.718 -21.965  1.00  0.00     0.011 C 
HETATM    4  C4  GRA     1      52.459  51.507 -21.121  1.00  0.00     0.021 C 
HETATM    5  C5  GRA     1      53.282  50.246 -21.442  1.00  0.00     0.042 C 
HETATM    6  C6  GRA     1      54.792  50.590 -21.402  1.00  0.00     0.030 C 
HETATM    7  C7  GRA     1      55.244  51.813 -22.252  1.00  0.00     0.025 C 
HETATM    8  C8  GRA     1      55.526  51.545 -23.748  1.00  0.00    -0.062 C 
HETATM    9  C9  GRA     1      55.854  50.320 -24.207  1.00  0.00     0.054 C 
HETATM   10  C10 GRA     1      56.371  50.047 -25.578  1.00  0.00     0.155 C 
HETATM   11  O1  GRA     1      56.509  48.868 -25.898  1.00  0.00    -0.293 OA
HETATM   12  C11 GRA     1      56.665  51.228 -26.517  1.00  0.00     0.077 C 
HETATM   13  C12 GRA     1      57.680  50.940 -27.707  1.00  0.00    -0.028 C 
HETATM   14  C13 GRA     1      57.118  49.801 -28.611  1.00  0.00     0.013 C 
HETATM   15  C14 GRA     1      57.850  49.628 -29.937  1.00  0.00     0.034 C 
HETATM   16  C15 GRA     1      57.894  50.906 -30.770  1.00  0.00     0.133 C 
HETATM   17  C16 GRA     1      58.495  52.110 -29.977  1.00  0.00    -0.017 C 
HETATM   18  C17 GRA     1      57.732  52.239 -28.602  1.00  0.00     0.005 C 
HETATM   19  C18 GRA     1      58.105  53.484 -27.773  1.00  0.00     0.007 C 
HETATM   20  C19 GRA     1      57.090  53.731 -26.652  1.00  0.00     0.011 C 
HETATM   21  C20 GRA     1      56.910  52.539 -25.675  1.00  0.00    -0.021 C 
HETATM   22  C21 GRA     1      55.639  52.756 -24.690  1.00  0.00    -0.012 C 
HETATM   23  C22 GRA     1      55.781  54.051 -23.846  1.00  0.00     0.015 C 
HETATM   24  C23 GRA     1      54.631  54.274 -22.866  1.00  0.00     0.011 C 
HETATM   25  C24 GRA     1      54.303  52.852 -25.491  1.00  0.00     0.021 C 
HETATM   26  C25 GRA     1      58.217  52.458 -24.825  1.00  0.00     0.017 C 
HETATM   27  C26 GRA     1      58.247  53.386 -30.831  1.00  0.00     0.018 C 
HETATM   28  C27 GRA     1      60.024  51.984 -29.825  1.00  0.00     0.018 C 
HETATM   29  C40 GRA     1      59.055  50.487 -27.166  1.00  0.00     0.016 C 
HETATM   30  C41 GRA     1      52.860  49.640 -22.789  1.00  0.00     0.026 C 
ENDROOT
BRANCH  16  31
HETATM   31  O2  GRA     1      58.667  50.657 -31.957  1.00  0.00    -0.352 OA
BRANCH  31  32
HETATM   32  C28 GRA     1      57.858  50.277 -33.088  1.00  0.00     0.293 C 
HETATM   33  C29 GRA     1      58.515  49.099 -33.833  1.00  0.00     0.211 C 
HETATM   34  C30 GRA     1      59.939  49.499 -34.255  1.00  0.00     0.183 C 
HETATM   35  C31 GRA     1      60.055  50.992 -34.614  1.00  0.00     0.189 C 
HETATM   36  C32 GRA     1      58.693  51.631 -34.925  1.00  0.00     0.253 C 
HETATM   37  O3  GRA     1      57.704  51.435 -33.908  1.00  0.00    -0.340 OA
BRANCH  33  38
HETATM   38  O8  GRA     1      58.617  47.924 -33.004  1.00  0.00    -0.346 OA
BRANCH  38  39
HETATM   39  C34 GRA     1      57.964  46.780 -33.574  1.00  0.00     0.293 C 
HETATM   40  C35 GRA     1      56.460  46.973 -33.333  1.00  0.00     0.204 C 
HETATM   41  C36 GRA     1      55.701  45.723 -33.785  1.00  0.00     0.183 C 
HETATM   42  C37 GRA     1      56.408  44.972 -34.924  1.00  0.00     0.189 C 
HETATM   43  C38 GRA     1      57.352  45.878 -35.732  1.00  0.00     0.253 C 
HETATM   44  O9  GRA     1      58.254  46.684 -34.961  1.00  0.00    -0.340 OA
BRANCH  40  45
HETATM   45  O14 GRA     1      56.163  47.224 -31.950  1.00  0.00    -0.388 OA
HETATM   46  H55 GRA     1      56.789  47.930 -31.685  1.00  0.00     0.210 HD
ENDBRANCH  40  45
BRANCH  41  47
HETATM   47  O13 GRA     1      54.376  46.090 -34.188  1.00  0.00    -0.390 OA
HETATM   48  H54 GRA     1      53.778  45.731 -33.501  1.00  0.00     0.210 HD
ENDBRANCH  41  47
BRANCH  42  49
HETATM   49  O12 GRA     1      57.192  43.906 -34.355  1.00  0.00    -0.390 OA
HETATM   50  H53 GRA     1      57.296  43.225 -35.046  1.00  0.00     0.210 HD
ENDBRANCH  42  49
BRANCH  43  51
HETATM   51  C39 GRA     1      56.516  46.663 -36.745  1.00  0.00     0.172 C 
HETATM   52  O10 GRA     1      55.458  46.293 -37.230  1.00  0.00    -0.648 OA
BRANCH  51  53
HETATM   53  O11 GRA     1      57.028  47.866 -37.068  1.00  0.00    -0.774 OA
HETATM   54  H52 GRA     1      57.999  47.774 -36.954  1.00  0.00     0.167 HD
ENDBRANCH  51  53
ENDBRANCH  43  51
ENDBRANCH  38  39
ENDBRANCH  33  38
BRANCH  34  55
HETATM   55  O7  GRA     1      60.316  48.697 -35.388  1.00  0.00    -0.390 OA
HETATM   56  H46 GRA     1      61.214  48.979 -35.645  1.00  0.00     0.210 HD
ENDBRANCH  34  55
BRANCH  35  57
HETATM   57  O6  GRA     1      60.674  51.693 -33.521  1.00  0.00    -0.390 OA
HETATM   58  H45 GRA     1      60.003  51.744 -32.807  1.00  0.00     0.210 HD
ENDBRANCH  35  57
BRANCH  36  59
HETATM   59  C33 GRA     1      58.186  51.176 -36.294  1.00  0.00     0.172 C 
HETATM   60  O4  GRA     1      57.026  50.968 -36.611  1.00  0.00    -0.648 OA
BRANCH  59  61
HETATM   61  O5  GRA     1      59.168  51.028 -37.207  1.00  0.00    -0.774 OA
HETATM   62  H44 GRA     1      59.739  51.815 -37.070  1.00  0.00     0.167 HD
ENDBRANCH  59  61
ENDBRANCH  36  59
ENDBRANCH  31  32
ENDBRANCH  16  31
BRANCH   5  63
HETATM   63  C42 GRA     1      53.012  49.181 -20.377  1.00  0.00     0.148 C 
HETATM   64  O15 GRA     1      52.343  49.314 -19.366  1.00  0.00    -0.649 OA
BRANCH  63  65
HETATM   65  O16 GRA     1      53.634  48.010 -20.615  1.00  0.00    -0.776 OA
HETATM   66  H62 GRA     1      53.831  47.662 -19.719  1.00  0.00     0.167 HD
ENDBRANCH  63  65
ENDBRANCH   5  63
TORSDOF 15
ENDMDL
