MODEL 1
REMARK VINA RESULT:    -9.093      0.000      0.000
REMARK INTER + INTRA:         -13.146
REMARK INTER:                 -12.282
REMARK INTRA:                  -0.864
REMARK UNBOUND:                -0.864
REMARK  10 active torsions:
REMARK  status: ('A' for Active; 'I' for Inactive)
REMARK    1  A    between atoms: C5_5  and  O2_8 
REMARK    2  A    between atoms: C6_6  and  O1_7 
REMARK    3  A    between atoms: C10_14  and  O11_30 
REMARK    4  A    between atoms: C11_15  and  C14_19 
REMARK    5  A    between atoms: C12_16  and  O5_18 
REMARK    6  A    between atoms: C15_20  and  O10_29 
REMARK    7  A    between atoms: C16_21  and  O9_28 
REMARK    8  A    between atoms: C17_22  and  O8_27 
REMARK    9  A    between atoms: C18_23  and  C19_25 
REMARK   10  A    between atoms: C19_25  and  O7_26 
ROOT
HETATM    1  C1  MAN     1      58.179  26.395 -22.865  1.00  0.00     0.057 A 
HETATM    2  C2  MAN     1      58.013  27.774 -22.706  1.00  0.00     0.052 A 
HETATM    3  C3  MAN     1      59.115  28.614 -22.532  1.00  0.00     0.093 A 
HETATM    4  C4  MAN     1      60.402  28.074 -22.501  1.00  0.00     0.077 A 
HETATM    5  C5  MAN     1      60.565  26.702 -22.643  1.00  0.00     0.101 A 
HETATM    6  C6  MAN     1      59.464  25.872 -22.849  1.00  0.00     0.099 A 
HETATM    7  O3  MAN     1      59.018  29.975 -22.377  1.00  0.00    -0.309 OA
HETATM    8  C7  MAN     1      57.768  30.547 -22.398  1.00  0.00     0.095 A 
HETATM    9  C8  MAN     1      56.584  29.835 -22.563  1.00  0.00     0.083 A 
HETATM   10  C9  MAN     1      56.675  28.376 -22.728  1.00  0.00     0.200 A 
HETATM   11  O4  MAN     1      55.660  27.702 -22.874  1.00  0.00    -0.286 OA
HETATM   12  C10 MAN     1      55.347  30.503 -22.578  1.00  0.00     0.094 A 
HETATM   13  C11 MAN     1      55.282  31.895 -22.394  1.00  0.00     0.041 A 
HETATM   14  C12 MAN     1      56.497  32.592 -22.262  1.00  0.00     0.080 A 
HETATM   15  C13 MAN     1      57.728  31.933 -22.255  1.00  0.00     0.075 A 
ENDROOT
BRANCH  13  16
HETATM   16  C14 MAN     1      53.979  32.680 -22.367  1.00  0.00     0.192 C 
HETATM   17  C15 MAN     1      53.375  32.752 -20.936  1.00  0.00     0.183 C 
HETATM   18  C16 MAN     1      53.480  34.163 -20.340  1.00  0.00     0.181 C 
HETATM   19  C17 MAN     1      52.888  35.221 -21.294  1.00  0.00     0.180 C 
HETATM   20  C18 MAN     1      52.975  34.786 -22.771  1.00  0.00     0.177 C 
HETATM   21  O6  MAN     1      54.129  33.974 -22.980  1.00  0.00    -0.368 OA
BRANCH  17  22
HETATM   22  O10 MAN     1      51.975  32.402 -20.984  1.00  0.00    -0.390 OA
HETATM   23  H17 MAN     1      51.940  31.425 -21.016  1.00  0.00     0.210 HD
ENDBRANCH  17  22
BRANCH  18  24
HETATM   24  O9  MAN     1      54.835  34.478 -20.008  1.00  0.00    -0.390 OA
HETATM   25  H16 MAN     1      55.371  33.662 -20.114  1.00  0.00     0.210 HD
ENDBRANCH  18  24
BRANCH  19  26
HETATM   26  O8  MAN     1      51.510  35.487 -20.986  1.00  0.00    -0.390 OA
HETATM   27  H15 MAN     1      51.169  34.691 -20.528  1.00  0.00     0.210 HD
ENDBRANCH  19  26
BRANCH  20  28
HETATM   28  C19 MAN     1      53.022  36.011 -23.693  1.00  0.00     0.198 C 
BRANCH  28  29
HETATM   29  O7  MAN     1      52.258  37.098 -23.176  1.00  0.00    -0.398 OA
HETATM   30  H14 MAN     1      52.774  37.508 -22.453  1.00  0.00     0.209 HD
ENDBRANCH  28  29
ENDBRANCH  20  28
ENDBRANCH  13  16
BRANCH  12  31
HETATM   31  O11 MAN     1      54.179  29.816 -22.805  1.00  0.00    -0.359 OA
HETATM   32  H18 MAN     1      53.963  29.879 -23.767  1.00  0.00     0.217 HD
ENDBRANCH  12  31
BRANCH  14  33
HETATM   33  O5  MAN     1      56.465  33.957 -22.163  1.00  0.00    -0.360 OA
HETATM   34  H6  MAN     1      57.362  34.285 -21.972  1.00  0.00     0.217 HD
ENDBRANCH  14  33
BRANCH   6  35
HETATM   35  O1  MAN     1      59.635  24.537 -23.063  1.00  0.00    -0.358 OA
HETATM   36  H3  MAN     1      60.173  24.451 -23.872  1.00  0.00     0.217 HD
ENDBRANCH   6  35
BRANCH   5  37
HETATM   37  O2  MAN     1      61.820  26.177 -22.548  1.00  0.00    -0.358 OA
HETATM   38  H4  MAN     1      62.232  26.280 -23.427  1.00  0.00     0.217 HD
ENDBRANCH   5  37
TORSDOF 10
ENDMDL
