MODEL 1
REMARK VINA RESULT:    -9.456      0.000      0.000
REMARK INTER + INTRA:         -16.729
REMARK INTER:                 -14.984
REMARK INTRA:                  -1.745
REMARK UNBOUND:                -1.745
REMARK  14 active torsions:
REMARK  status: ('A' for Active; 'I' for Inactive)
REMARK    1  A    between atoms: C3_3  and  O14_41 
REMARK    2  A    between atoms: C4_4  and  O13_40 
REMARK    3  A    between atoms: C5_5  and  O12_39 
REMARK    4  A    between atoms: C6_6  and  O2_8 
REMARK    5  A    between atoms: O2_8  and  C7_9 
REMARK    6  A    between atoms: C8_10  and  O11_38 
REMARK    7  A    between atoms: C9_11  and  O10_37 
REMARK    8  A    between atoms: C10_12  and  C27_35 
REMARK    9  A    between atoms: C11_14  and  O4_15 
REMARK   10  A    between atoms: O4_15  and  C12_16 
REMARK   11  A    between atoms: C14_18  and  O8_34 
REMARK   12  A    between atoms: C18_23  and  C21_27 
REMARK   13  A    between atoms: C24_30  and  O7_33 
REMARK   14  A    between atoms: C27_35  and  O9_36 
ROOT
HETATM    1  C7  NAR     1      27.277  35.382 -11.003  1.00  0.00     0.211 C 
HETATM    2  C8  NAR     1      28.644  36.070 -10.837  1.00  0.00     0.183 C 
HETATM    3  C9  NAR     1      29.188  36.615 -12.174  1.00  0.00     0.180 C 
HETATM    4  C10 NAR     1      28.597  35.840 -13.366  1.00  0.00     0.179 C 
HETATM    5  O3  NAR     1      28.443  34.467 -13.018  1.00  0.00    -0.348 OA
HETATM    6  C11 NAR     1      27.363  34.263 -12.087  1.00  0.00     0.298 C 
ENDROOT
BRANCH   6   7
HETATM    7  O4  NAR     1      27.581  33.026 -11.390  1.00  0.00    -0.318 OA
BRANCH   7   8
HETATM    8  C12 NAR     1      26.721  31.996 -11.647  1.00  0.00     0.077 A 
HETATM    9  C13 NAR     1      25.576  31.689 -10.911  1.00  0.00     0.074 A 
HETATM   10  C14 NAR     1      24.770  30.617 -11.294  1.00  0.00     0.085 A 
HETATM   11  C15 NAR     1      25.103  29.846 -12.410  1.00  0.00     0.076 A 
HETATM   12  C16 NAR     1      24.246  28.739 -12.873  1.00  0.00     0.167 C 
HETATM   13  C19 NAR     1      26.251  30.146 -13.141  1.00  0.00     0.089 A 
HETATM   14  O5  NAR     1      23.232  28.445 -12.242  1.00  0.00    -0.292 OA
HETATM   15  C17 NAR     1      24.638  28.066 -14.156  1.00  0.00     0.121 C 
HETATM   16  C18 NAR     1      26.157  28.091 -14.259  1.00  0.00     0.169 C 
HETATM   17  O6  NAR     1      26.650  29.441 -14.246  1.00  0.00    -0.340 OA
HETATM   18  C20 NAR     1      27.044  31.231 -12.773  1.00  0.00     0.074 A 
BRANCH  10  19
HETATM   19  O8  NAR     1      23.656  30.383 -10.534  1.00  0.00    -0.360 OA
HETATM   20  H24 NAR     1      23.652  29.432 -10.276  1.00  0.00     0.217 HD
ENDBRANCH  10  19
BRANCH  16  21
HETATM   21  C21 NAR     1      26.614  27.410 -15.537  1.00  0.00    -0.028 A 
HETATM   22  C22 NAR     1      26.144  27.826 -16.795  1.00  0.00     0.012 A 
HETATM   23  C23 NAR     1      26.554  27.174 -17.961  1.00  0.00     0.037 A 
HETATM   24  C24 NAR     1      27.434  26.101 -17.872  1.00  0.00     0.065 A 
HETATM   25  C25 NAR     1      27.906  25.670 -16.639  1.00  0.00     0.037 A 
HETATM   26  C26 NAR     1      27.497  26.321 -15.473  1.00  0.00     0.012 A 
BRANCH  24  27
HETATM   27  O7  NAR     1      27.861  25.437 -18.982  1.00  0.00    -0.361 OA
HETATM   28  H23 NAR     1      27.688  25.993 -19.761  1.00  0.00     0.217 HD
ENDBRANCH  24  27
ENDBRANCH  16  21
ENDBRANCH   7   8
ENDBRANCH   6   7
BRANCH   1  29
HETATM   29  O2  NAR     1      26.316  36.386 -11.381  1.00  0.00    -0.346 OA
BRANCH  29  30
HETATM   30  C6  NAR     1      25.105  36.304 -10.624  1.00  0.00     0.292 C 
HETATM   31  C5  NAR     1      24.252  37.539 -10.985  1.00  0.00     0.204 C 
HETATM   32  C4  NAR     1      22.775  37.318 -10.627  1.00  0.00     0.183 C 
HETATM   33  C3  NAR     1      22.624  36.234  -9.558  1.00  0.00     0.178 C 
HETATM   34  C2  NAR     1      23.247  34.917 -10.068  1.00  0.00     0.152 C 
HETATM   35  C1  NAR     1      23.633  33.991  -8.918  1.00  0.00     0.042 C 
HETATM   36  O1  NAR     1      24.390  35.113 -10.917  1.00  0.00    -0.351 OA
BRANCH  31  37
HETATM   37  O12 NAR     1      24.745  38.704 -10.294  1.00  0.00    -0.388 OA
HETATM   38  H30 NAR     1      25.646  38.470  -9.991  1.00  0.00     0.210 HD
ENDBRANCH  31  37
BRANCH  32  39
HETATM   39  O13 NAR     1      22.166  38.530 -10.154  1.00  0.00    -0.390 OA
HETATM   40  H31 NAR     1      21.262  38.529 -10.539  1.00  0.00     0.210 HD
ENDBRANCH  32  39
BRANCH  33  41
HETATM   41  O14 NAR     1      21.243  36.045  -9.242  1.00  0.00    -0.390 OA
HETATM   42  H32 NAR     1      20.924  36.926  -8.952  1.00  0.00     0.210 HD
ENDBRANCH  33  41
ENDBRANCH  29  30
ENDBRANCH   1  29
BRANCH   2  43
HETATM   43  O11 NAR     1      29.586  35.154 -10.253  1.00  0.00    -0.390 OA
HETATM   44  H29 NAR     1      29.780  35.458  -9.345  1.00  0.00     0.210 HD
ENDBRANCH   2  43
BRANCH   4  45
HETATM   45  C27 NAR     1      29.510  35.954 -14.593  1.00  0.00     0.198 C 
BRANCH  45  46
HETATM   46  O9  NAR     1      30.740  36.582 -14.242  1.00  0.00    -0.398 OA
HETATM   47  H27 NAR     1      30.881  37.298 -14.890  1.00  0.00     0.209 HD
ENDBRANCH  45  46
ENDBRANCH   4  45
BRANCH   3  48
HETATM   48  O10 NAR     1      28.896  38.010 -12.312  1.00  0.00    -0.390 OA
HETATM   49  H28 NAR     1      28.087  38.166 -11.780  1.00  0.00     0.210 HD
ENDBRANCH   3  48
TORSDOF 14
ENDMDL
