MODEL 1
REMARK VINA RESULT:    -7.919      0.000      0.000
REMARK INTER + INTRA:          -9.880
REMARK INTER:                  -9.539
REMARK INTRA:                  -0.341
REMARK UNBOUND:                -0.341
REMARK  5 active torsions:
REMARK  status: ('A' for Active; 'I' for Inactive)
REMARK    1  A    between atoms: C3_3  and  O3_17 
REMARK    2  A    between atoms: C6_6  and  C7_7 
REMARK    3  A    between atoms: C8_8  and  C9_9 
REMARK    4  A    between atoms: C11_11  and  O2_16 
REMARK    5  A    between atoms: C13_13  and  O1_15 
ROOT
HETATM    1  C9  RES     1      74.032  30.693 -35.198  1.00  0.00    -0.031 A 
HETATM    2  C10 RES     1      75.241  31.270 -34.786  1.00  0.00     0.048 A 
HETATM    3  C11 RES     1      76.104  31.833 -35.723  1.00  0.00     0.069 A 
HETATM    4  C12 RES     1      75.781  31.844 -37.074  1.00  0.00     0.073 A 
HETATM    5  C13 RES     1      74.574  31.288 -37.480  1.00  0.00     0.069 A 
HETATM    6  C14 RES     1      73.696  30.718 -36.558  1.00  0.00     0.048 A 
ENDROOT
BRANCH   1   7
HETATM    7  C8  RES     1      73.132  30.135 -34.178  1.00  0.00     0.012 C 
HETATM    8  C7  RES     1      73.384  30.172 -32.860  1.00  0.00     0.012 C 
BRANCH   8   9
HETATM    9  C6  RES     1      72.483  29.616 -31.839  1.00  0.00    -0.036 A 
HETATM   10  C1  RES     1      72.638  28.317 -31.333  1.00  0.00     0.014 A 
HETATM   11  C2  RES     1      71.744  27.811 -30.385  1.00  0.00     0.037 A 
HETATM   12  C3  RES     1      70.686  28.601 -29.950  1.00  0.00     0.065 A 
HETATM   13  C4  RES     1      70.507  29.884 -30.451  1.00  0.00     0.037 A 
HETATM   14  C5  RES     1      71.400  30.389 -31.399  1.00  0.00     0.014 A 
BRANCH  12  15
HETATM   15  O3  RES     1      69.791  28.148 -29.028  1.00  0.00    -0.361 OA
HETATM   16  H12 RES     1      69.031  28.753 -29.011  1.00  0.00     0.217 HD
ENDBRANCH  12  15
ENDBRANCH   8   9
ENDBRANCH   1   7
BRANCH   3  17
HETATM   17  O2  RES     1      77.272  32.372 -35.267  1.00  0.00    -0.361 OA
HETATM   18  H11 RES     1      77.983  32.131 -35.885  1.00  0.00     0.217 HD
ENDBRANCH   3  17
BRANCH   5  19
HETATM   19  O1  RES     1      74.278  31.325 -38.813  1.00  0.00    -0.361 OA
HETATM   20  H10 RES     1      74.382  32.238 -39.129  1.00  0.00     0.217 HD
ENDBRANCH   5  19
TORSDOF 5
ENDMDL
