MODEL 1
REMARK VINA RESULT:    -9.108      0.000      0.000
REMARK INTER + INTRA:         -11.239
REMARK INTER:                 -10.972
REMARK INTRA:                  -0.267
REMARK UNBOUND:                -0.267
REMARK  5 active torsions:
REMARK  status: ('A' for Active; 'I' for Inactive)
REMARK    1  A    between atoms: O1_2  and  C2_3 
REMARK    2  A    between atoms: C4_5  and  O6_22 
REMARK    3  A    between atoms: C8_10  and  C11_15 
REMARK    4  A    between atoms: C9_11  and  O4_14 
REMARK    5  A    between atoms: C14_18  and  O5_21 
ROOT
HETATM    1  C2  RHA     1      53.687  31.599 -21.055  1.00  0.00     0.073 A 
HETATM    2  C3  RHA     1      54.263  32.863 -21.204  1.00  0.00     0.074 A 
HETATM    3  C4  RHA     1      55.592  32.978 -21.614  1.00  0.00     0.085 A 
HETATM    4  C5  RHA     1      56.350  31.835 -21.877  1.00  0.00     0.084 A 
HETATM    5  C6  RHA     1      55.780  30.576 -21.731  1.00  0.00     0.096 A 
HETATM    6  C7  RHA     1      54.453  30.458 -21.322  1.00  0.00     0.075 A 
HETATM    7  O2  RHA     1      56.465  29.413 -21.974  1.00  0.00    -0.306 OA
HETATM    8  C8  RHA     1      57.796  29.487 -22.372  1.00  0.00     0.123 A 
HETATM    9  C9  RHA     1      58.461  30.643 -22.556  1.00  0.00     0.152 A 
HETATM   10  C10 RHA     1      57.746  31.916 -22.310  1.00  0.00     0.223 A 
HETATM   11  O3  RHA     1      58.315  32.994 -22.469  1.00  0.00    -0.284 OA
ENDROOT
BRANCH   8  12
HETATM   12  C11 RHA     1      58.402  28.157 -22.597  1.00  0.00     0.001 A 
HETATM   13  C12 RHA     1      57.870  27.305 -23.580  1.00  0.00     0.017 A 
HETATM   14  C13 RHA     1      58.409  26.032 -23.795  1.00  0.00     0.037 A 
HETATM   15  C14 RHA     1      59.480  25.605 -23.020  1.00  0.00     0.065 A 
HETATM   16  C15 RHA     1      60.017  26.425 -22.037  1.00  0.00     0.037 A 
HETATM   17  C16 RHA     1      59.478  27.696 -21.823  1.00  0.00     0.017 A 
BRANCH  15  18
HETATM   18  O5  RHA     1      60.036  24.372 -23.194  1.00  0.00    -0.361 OA
HETATM   19  H11 RHA     1      60.823  24.463 -23.756  1.00  0.00     0.217 HD
ENDBRANCH  15  18
ENDBRANCH   8  12
BRANCH   9  20
HETATM   20  O4  RHA     1      59.774  30.730 -22.979  1.00  0.00    -0.355 OA
HETATM   21  H6  RHA     1      60.229  29.958 -22.581  1.00  0.00     0.218 HD
ENDBRANCH   9  20
BRANCH   3  22
HETATM   22  O6  RHA     1      56.089  34.247 -21.739  1.00  0.00    -0.360 OA
HETATM   23  H12 RHA     1      57.070  34.195 -21.789  1.00  0.00     0.217 HD
ENDBRANCH   3  22
BRANCH   1  24
HETATM   24  O1  RHA     1      52.402  31.343 -20.664  1.00  0.00    -0.356 OA
HETATM   25  C1  RHA     1      52.115  30.019 -20.226  1.00  0.00     0.210 C 
ENDBRANCH   1  24
TORSDOF 5
ENDMDL
