MODEL 1
REMARK VINA RESULT:    -8.731      0.000      0.000
REMARK INTER + INTRA:         -16.351
REMARK INTER:                 -14.345
REMARK INTRA:                  -2.005
REMARK UNBOUND:                -2.005
REMARK  16 active torsions:
REMARK  status: ('A' for Active; 'I' for Inactive)
REMARK    1  A    between atoms: C3_3  and  O16_43 
REMARK    2  A    between atoms: C4_4  and  O15_42 
REMARK    3  A    between atoms: C5_5  and  O14_41 
REMARK    4  A    between atoms: C6_6  and  O2_8 
REMARK    5  A    between atoms: O2_8  and  C7_9 
REMARK    6  A    between atoms: C7_9  and  C8_10 
REMARK    7  A    between atoms: C9_11  and  O13_40 
REMARK    8  A    between atoms: C10_12  and  O12_39 
REMARK    9  A    between atoms: C11_13  and  O11_38 
REMARK   10  A    between atoms: C12_14  and  O4_16 
REMARK   11  A    between atoms: O4_16  and  C13_17 
REMARK   12  A    between atoms: C14_18  and  C22_30 
REMARK   13  A    between atoms: C17_22  and  O8_29 
REMARK   14  A    between atoms: C19_24  and  O7_28 
REMARK   15  A    between atoms: C24_32  and  O10_37 
REMARK   16  A    between atoms: C25_33  and  O9_36 
ROOT
HETATM    1  C8  RUT     1      52.622  31.349 -22.071  1.00  0.00     0.180 C 
HETATM    2  C9  RUT     1      53.915  32.176 -22.156  1.00  0.00     0.180 C 
HETATM    3  C10 RUT     1      54.864  31.747 -21.031  1.00  0.00     0.183 C 
HETATM    4  C11 RUT     1      54.871  30.232 -20.791  1.00  0.00     0.205 C 
HETATM    5  C12 RUT     1      54.149  29.461 -21.915  1.00  0.00     0.298 C 
HETATM    6  O3  RUT     1      52.827  29.938 -22.201  1.00  0.00    -0.348 OA
ENDROOT
BRANCH   5   7
HETATM    7  O4  RUT     1      54.941  29.505 -23.109  1.00  0.00    -0.311 OA
BRANCH   7   8
HETATM    8  C13 RUT     1      55.875  28.486 -23.169  1.00  0.00     0.157 A 
HETATM    9  C14 RUT     1      55.570  27.246 -23.598  1.00  0.00     0.124 A 
HETATM   10  O5  RUT     1      56.465  26.193 -23.676  1.00  0.00    -0.306 OA
HETATM   11  C15 RUT     1      57.780  26.425 -23.366  1.00  0.00     0.096 A 
HETATM   12  C16 RUT     1      58.659  25.350 -23.492  1.00  0.00     0.075 A 
HETATM   13  C20 RUT     1      58.250  27.664 -22.941  1.00  0.00     0.084 A 
HETATM   14  C17 RUT     1      60.006  25.526 -23.190  1.00  0.00     0.071 A 
HETATM   15  C18 RUT     1      60.491  26.759 -22.764  1.00  0.00     0.074 A 
HETATM   16  C19 RUT     1      59.607  27.829 -22.641  1.00  0.00     0.085 A 
HETATM   17  C21 RUT     1      57.291  28.768 -22.811  1.00  0.00     0.223 A 
HETATM   18  O6  RUT     1      57.663  29.868 -22.409  1.00  0.00    -0.284 OA
BRANCH   9  19
HETATM   19  C22 RUT     1      54.205  26.870 -24.001  1.00  0.00     0.004 A 
HETATM   20  C23 RUT     1      53.362  26.223 -23.084  1.00  0.00     0.053 A 
HETATM   21  C24 RUT     1      52.081  25.849 -23.477  1.00  0.00     0.099 A 
HETATM   22  C25 RUT     1      51.637  26.106 -24.772  1.00  0.00     0.098 A 
HETATM   23  C26 RUT     1      52.458  26.743 -25.690  1.00  0.00     0.040 A 
HETATM   24  C27 RUT     1      53.744  27.127 -25.304  1.00  0.00     0.017 A 
BRANCH  21  25
HETATM   25  O10 RUT     1      51.216  25.224 -22.622  1.00  0.00    -0.358 OA
HETATM   26  H24 RUT     1      50.676  25.901 -22.181  1.00  0.00     0.217 HD
ENDBRANCH  21  25
BRANCH  22  27
HETATM   27  O9  RUT     1      50.383  25.727 -25.152  1.00  0.00    -0.358 OA
HETATM   28  H23 RUT     1      49.788  26.371 -24.720  1.00  0.00     0.217 HD
ENDBRANCH  22  27
ENDBRANCH   9  19
BRANCH  14  29
HETATM   29  O8  RUT     1      60.831  24.449 -23.327  1.00  0.00    -0.361 OA
HETATM   30  H19 RUT     1      60.590  23.968 -24.137  1.00  0.00     0.217 HD
ENDBRANCH  14  29
BRANCH  16  31
HETATM   31  O7  RUT     1      60.140  29.018 -22.217  1.00  0.00    -0.360 OA
HETATM   32  H18 RUT     1      60.405  28.921 -21.275  1.00  0.00     0.217 HD
ENDBRANCH  16  31
ENDBRANCH   7   8
ENDBRANCH   5   7
BRANCH   4  33
HETATM   33  O11 RUT     1      54.219  29.970 -19.531  1.00  0.00    -0.388 OA
HETATM   34  H25 RUT     1      54.906  30.020 -18.843  1.00  0.00     0.210 HD
ENDBRANCH   4  33
BRANCH   3  35
HETATM   35  O12 RUT     1      56.185  32.218 -21.347  1.00  0.00    -0.390 OA
HETATM   36  H26 RUT     1      56.378  32.900 -20.674  1.00  0.00     0.210 HD
ENDBRANCH   3  35
BRANCH   1  37
HETATM   37  C7  RUT     1      51.605  31.772 -23.145  1.00  0.00     0.205 C 
BRANCH  37  38
HETATM   38  O2  RUT     1      50.428  32.309 -22.528  1.00  0.00    -0.356 OA
BRANCH  38  39
HETATM   39  C6  RUT     1      50.079  33.580 -23.091  1.00  0.00     0.291 C 
HETATM   40  C5  RUT     1      48.567  33.825 -22.913  1.00  0.00     0.204 C 
HETATM   41  C4  RUT     1      48.239  34.124 -21.452  1.00  0.00     0.183 C 
HETATM   42  C3  RUT     1      49.132  35.242 -20.907  1.00  0.00     0.178 C 
HETATM   43  C2  RUT     1      50.604  34.863 -21.127  1.00  0.00     0.152 C 
HETATM   44  C1  RUT     1      51.544  35.972 -20.667  1.00  0.00     0.042 C 
HETATM   45  O1  RUT     1      50.871  34.621 -22.511  1.00  0.00    -0.351 OA
BRANCH  40  46
HETATM   46  O14 RUT     1      48.124  34.930 -23.722  1.00  0.00    -0.388 OA
HETATM   47  H28 RUT     1      48.878  35.113 -24.320  1.00  0.00     0.210 HD
ENDBRANCH  40  46
BRANCH  41  48
HETATM   48  O15 RUT     1      46.861  34.528 -21.353  1.00  0.00    -0.390 OA
HETATM   49  H29 RUT     1      46.610  34.770 -22.268  1.00  0.00     0.210 HD
ENDBRANCH  41  48
BRANCH  42  50
HETATM   50  O16 RUT     1      48.809  35.418 -19.522  1.00  0.00    -0.390 OA
HETATM   51  H30 RUT     1      49.461  36.037 -19.148  1.00  0.00     0.210 HD
ENDBRANCH  42  50
ENDBRANCH  38  39
ENDBRANCH  37  38
ENDBRANCH   1  37
BRANCH   2  52
HETATM   52  O13 RUT     1      53.708  33.590 -22.018  1.00  0.00    -0.390 OA
HETATM   53  H27 RUT     1      54.319  33.902 -21.320  1.00  0.00     0.210 HD
ENDBRANCH   2  52
TORSDOF 16
ENDMDL
