MODEL 1
REMARK VINA RESULT:    -9.802      0.000      0.000
REMARK INTER + INTRA:         -13.948
REMARK INTER:                 -13.527
REMARK INTRA:                  -0.421
REMARK UNBOUND:                -0.421
REMARK  9 active torsions:
REMARK  status: ('A' for Active; 'I' for Inactive)
REMARK    1  A    between atoms: O1_2  and  C2_3 
REMARK    2  A    between atoms: C3_4  and  O10_35 
REMARK    3  A    between atoms: C6_7  and  C8_9 
REMARK    4  A    between atoms: C9_10  and  C25_33 
REMARK    5  A    between atoms: C13_16  and  C16_19 
REMARK    6  A    between atoms: C17_20  and  O8_32 
REMARK    7  A    between atoms: C20_24  and  O7_31 
REMARK    8  A    between atoms: C22_26  and  O6_30 
REMARK    9  A    between atoms: C25_33  and  O9_34 
ROOT
HETATM    1  C8  SIL     1      27.699  29.579 -16.878  1.00  0.00     0.193 C 
HETATM    2  C9  SIL     1      27.077  28.182 -17.044  1.00  0.00     0.186 C 
HETATM    3  O2  SIL     1      26.994  27.520 -15.759  1.00  0.00    -0.338 OA
HETATM    4  C10 SIL     1      26.497  28.351 -14.790  1.00  0.00     0.102 A 
HETATM    5  C11 SIL     1      26.423  29.736 -14.932  1.00  0.00     0.103 A 
HETATM    6  O3  SIL     1      26.856  30.401 -16.048  1.00  0.00    -0.336 OA
HETATM    7  C12 SIL     1      25.876  30.517 -13.914  1.00  0.00     0.049 A 
HETATM    8  C13 SIL     1      25.429  29.925 -12.721  1.00  0.00    -0.023 A 
HETATM    9  C14 SIL     1      25.527  28.529 -12.585  1.00  0.00     0.013 A 
HETATM   10  C15 SIL     1      26.063  27.748 -13.613  1.00  0.00     0.040 A 
ENDROOT
BRANCH   8  11
HETATM   11  C16 SIL     1      24.818  30.755 -11.600  1.00  0.00     0.198 C 
HETATM   12  C17 SIL     1      23.294  30.586 -11.552  1.00  0.00     0.227 C 
HETATM   13  C18 SIL     1      22.739  31.509 -10.484  1.00  0.00     0.196 C 
HETATM   14  O4  SIL     1      21.711  31.253  -9.856  1.00  0.00    -0.289 OA
HETATM   15  C19 SIL     1      23.457  32.768 -10.238  1.00  0.00     0.079 A 
HETATM   16  C20 SIL     1      22.964  33.730  -9.349  1.00  0.00     0.085 A 
HETATM   17  C24 SIL     1      24.641  33.008 -10.935  1.00  0.00     0.089 A 
HETATM   18  C21 SIL     1      23.639  34.934  -9.167  1.00  0.00     0.074 A 
HETATM   19  C22 SIL     1      24.805  35.172  -9.886  1.00  0.00     0.071 A 
HETATM   20  C23 SIL     1      25.309  34.222 -10.771  1.00  0.00     0.074 A 
HETATM   21  O5  SIL     1      25.194  32.126 -11.821  1.00  0.00    -0.337 OA
BRANCH  12  22
HETATM   22  O8  SIL     1      22.920  29.247 -11.215  1.00  0.00    -0.385 OA
HETATM   23  H18 SIL     1      23.744  28.719 -11.233  1.00  0.00     0.210 HD
ENDBRANCH  12  22
BRANCH  16  24
HETATM   24  O7  SIL     1      21.813  33.558  -8.625  1.00  0.00    -0.360 OA
HETATM   25  H17 SIL     1      21.650  32.594  -8.525  1.00  0.00     0.217 HD
ENDBRANCH  16  24
BRANCH  19  26
HETATM   26  O6  SIL     1      25.497  36.339  -9.751  1.00  0.00    -0.361 OA
HETATM   27  H16 SIL     1      24.900  37.084  -9.940  1.00  0.00     0.217 HD
ENDBRANCH  19  26
ENDBRANCH   8  11
BRANCH   1  28
HETATM   28  C6  SIL     1      27.884  30.323 -18.188  1.00  0.00    -0.024 A 
HETATM   29  C5  SIL     1      29.123  30.330 -18.845  1.00  0.00     0.013 A 
HETATM   30  C4  SIL     1      29.289  31.033 -20.038  1.00  0.00     0.040 A 
HETATM   31  C3  SIL     1      28.213  31.730 -20.583  1.00  0.00     0.099 A 
HETATM   32  C2  SIL     1      26.961  31.734 -19.955  1.00  0.00     0.101 A 
HETATM   33  C7  SIL     1      26.806  31.027 -18.757  1.00  0.00     0.049 A 
BRANCH  31  34
HETATM   34  O10 SIL     1      28.375  32.422 -21.754  1.00  0.00    -0.358 OA
HETATM   35  H22 SIL     1      27.564  32.350 -22.280  1.00  0.00     0.217 HD
ENDBRANCH  31  34
BRANCH  32  36
HETATM   36  O1  SIL     1      25.973  32.451 -20.579  1.00  0.00    -0.353 OA
HETATM   37  C1  SIL     1      25.034  31.732 -21.363  1.00  0.00     0.210 C 
ENDBRANCH  32  36
ENDBRANCH   1  28
BRANCH   2  38
HETATM   38  C25 SIL     1      27.919  27.265 -17.938  1.00  0.00     0.199 C 
BRANCH  38  39
HETATM   39  O9  SIL     1      27.155  26.120 -18.327  1.00  0.00    -0.398 OA
HETATM   40  H21 SIL     1      26.329  26.465 -18.718  1.00  0.00     0.209 HD
ENDBRANCH  38  39
ENDBRANCH   2  38
TORSDOF 9
ENDMDL
