MODEL 1
REMARK VINA RESULT:    -9.075      0.000      0.000
REMARK INTER + INTRA:         -13.932
REMARK INTER:                 -12.523
REMARK INTRA:                  -1.409
REMARK UNBOUND:                -1.409
REMARK  10 active torsions:
REMARK  status: ('A' for Active; 'I' for Inactive)
REMARK    1  A    between atoms: C3_3  and  O10_31 
REMARK    2  A    between atoms: C6_6  and  C7_7 
REMARK    3  A    between atoms: C12_14  and  C16_20 
REMARK    4  A    between atoms: C13_15  and  O4_19 
REMARK    5  A    between atoms: C15_17  and  O3_18 
REMARK    6  A    between atoms: C17_21  and  O9_30 
REMARK    7  A    between atoms: C18_22  and  O8_29 
REMARK    8  A    between atoms: C19_23  and  O7_28 
REMARK    9  A    between atoms: C20_24  and  C21_26 
REMARK   10  A    between atoms: C21_26  and  O6_27 
ROOT
HETATM    1  C7  VIT     1      56.824  29.377 -22.886  1.00  0.00     0.090 A 
HETATM    2  C8  VIT     1      57.996  30.022 -22.952  1.00  0.00     0.094 A 
HETATM    3  C9  VIT     1      58.052  31.428 -22.538  1.00  0.00     0.190 A 
HETATM    4  O1  VIT     1      59.097  32.067 -22.586  1.00  0.00    -0.287 OA
HETATM    5  C10 VIT     1      56.803  32.043 -22.071  1.00  0.00     0.082 A 
HETATM    6  C11 VIT     1      55.645  31.262 -22.027  1.00  0.00     0.104 A 
HETATM    7  O2  VIT     1      55.649  29.944 -22.422  1.00  0.00    -0.308 OA
HETATM    8  C12 VIT     1      54.425  31.812 -21.578  1.00  0.00     0.041 A 
HETATM    9  C13 VIT     1      54.416  33.167 -21.202  1.00  0.00     0.080 A 
HETATM   10  C14 VIT     1      55.571  33.950 -21.250  1.00  0.00     0.074 A 
HETATM   11  C15 VIT     1      56.764  33.384 -21.681  1.00  0.00     0.085 A 
ENDROOT
BRANCH   8  12
HETATM   12  C16 VIT     1      53.151  30.982 -21.500  1.00  0.00     0.192 C 
HETATM   13  C17 VIT     1      53.095  30.076 -20.238  1.00  0.00     0.183 C 
HETATM   14  C18 VIT     1      51.638  29.840 -19.774  1.00  0.00     0.181 C 
HETATM   15  C19 VIT     1      50.697  29.832 -20.986  1.00  0.00     0.180 C 
HETATM   16  C20 VIT     1      50.788  31.170 -21.766  1.00  0.00     0.177 C 
HETATM   17  O5  VIT     1      52.026  31.870 -21.544  1.00  0.00    -0.368 OA
BRANCH  13  18
HETATM   18  O9  VIT     1      53.708  28.805 -20.526  1.00  0.00    -0.390 OA
HETATM   19  H19 VIT     1      54.325  28.965 -21.272  1.00  0.00     0.210 HD
ENDBRANCH  13  18
BRANCH  14  20
HETATM   20  O8  VIT     1      51.203  30.824 -18.834  1.00  0.00    -0.390 OA
HETATM   21  H18 VIT     1      50.511  30.420 -18.280  1.00  0.00     0.210 HD
ENDBRANCH  14  20
BRANCH  15  22
HETATM   22  O7  VIT     1      51.099  28.741 -21.842  1.00  0.00    -0.390 OA
HETATM   23  H17 VIT     1      50.624  28.869 -22.684  1.00  0.00     0.210 HD
ENDBRANCH  15  22
BRANCH  16  24
HETATM   24  C21 VIT     1      49.647  32.121 -21.393  1.00  0.00     0.198 C 
BRANCH  24  25
HETATM   25  O6  VIT     1      50.108  33.125 -20.492  1.00  0.00    -0.398 OA
HETATM   26  H16 VIT     1      49.468  33.154 -19.758  1.00  0.00     0.209 HD
ENDBRANCH  24  25
ENDBRANCH  16  24
ENDBRANCH   8  12
BRANCH   9  27
HETATM   27  O4  VIT     1      53.247  33.735 -20.775  1.00  0.00    -0.360 OA
HETATM   28  H8  VIT     1      52.706  33.058 -20.334  1.00  0.00     0.217 HD
ENDBRANCH   9  27
BRANCH  11  29
HETATM   29  O3  VIT     1      57.860  34.203 -21.701  1.00  0.00    -0.360 OA
HETATM   30  H7  VIT     1      57.690  34.960 -21.095  1.00  0.00     0.217 HD
ENDBRANCH  11  29
BRANCH   1  31
HETATM   31  C6  VIT     1      56.691  27.963 -23.291  1.00  0.00    -0.002 A 
HETATM   32  C1  VIT     1      57.808  27.121 -23.419  1.00  0.00     0.017 A 
HETATM   33  C2  VIT     1      57.662  25.789 -23.822  1.00  0.00     0.037 A 
HETATM   34  C3  VIT     1      56.393  25.296 -24.107  1.00  0.00     0.065 A 
HETATM   35  C4  VIT     1      55.276  26.111 -23.999  1.00  0.00     0.037 A 
HETATM   36  C5  VIT     1      55.424  27.441 -23.593  1.00  0.00     0.017 A 
BRANCH  34  37
HETATM   37  O10 VIT     1      56.204  24.006 -24.506  1.00  0.00    -0.361 OA
HETATM   38  H20 VIT     1      56.977  23.482 -24.244  1.00  0.00     0.217 HD
ENDBRANCH  34  37
ENDBRANCH   1  31
TORSDOF 10
ENDMDL
