@<TRIPOS>MOLECULE
*****
 88 91 0 0 0
SMALL
GASTEIGER

@<TRIPOS>ATOM
      1  C1         3.6317  -21.8660  -10.5212 C.3     1  NEO1       -0.0175
      2  N1         4.3474  -19.6482  -11.3317 N.3     1  NEO1       -0.3250
      3  O1         7.1639  -20.5000  -11.0791 O.3     1  NEO1       -0.3422
      4  C2         4.0390  -23.1241   -9.7185 C.3     1  NEO1        0.0351
      5  N2         6.3788  -15.4439  -10.5846 N.3     1  NEO1       -0.3276
      6  O2         6.8988  -18.5843  -12.4729 O.3     1  NEO1       -0.3425
      7  C3         5.3422  -23.7532  -10.2736 C.3     1  NEO1        0.0990
      8  N3         9.7566  -20.9776  -12.1747 N.3     1  NEO1       -0.3211
      9  O3         9.2587  -16.3460  -10.7079 O.3     1  NEO1       -0.3866
     10  C4         6.4550  -22.6756  -10.2830 C.3     1  NEO1        0.1166
     11  N4        12.3031  -26.7169   -4.5534 N.3     1  NEO1       -0.3276
     12  O4        10.9915  -18.3182  -11.7397 O.3     1  NEO1       -0.3874
     13  C5         6.0572  -21.4510  -11.1344 C.3     1  NEO1        0.1055
     14  N5        13.8976  -24.3618   -8.5160 N.3     1  NEO1       -0.3211
     15  O5         7.6972  -23.1890  -10.8418 O.3     1  NEO1       -0.3402
     16  C6         4.7707  -20.8201  -10.5482 C.3     1  NEO1        0.0355
     17  N6         2.9453  -24.1114   -9.7419 N.3     1  NEO1       -0.3250
     18  O6         8.6818  -24.9199   -9.4873 O.3     1  NEO1       -0.3405
     19  C7         7.5403  -19.8757  -12.3377 C.3     1  NEO1        0.1776
     20  O7         8.6102  -25.5546   -5.8903 O.3     1  NEO1       -0.3924
     21  C8         9.0807  -19.6962  -12.4414 C.3     1  NEO1        0.0853
     22  O8        11.2477  -23.5610   -8.2111 O.3     1  NEO1       -0.3410
     23  C9         9.6031  -18.5970  -11.4828 C.3     1  NEO1        0.1033
     24  O9        12.0331  -24.4555   -6.1720 O.3     1  NEO1       -0.3425
     25  C10        8.7936  -17.2965  -11.6691 C.3     1  NEO1        0.1100
     26  O10       14.7282  -25.5261   -5.8550 O.3     1  NEO1       -0.3866
     27  C11        7.2794  -17.5854  -11.4927 C.3     1  NEO1        0.1022
     28  O11       14.5656  -21.9126   -5.7938 O.3     1  NEO1       -0.3874
     29  C12        6.3865  -16.3508  -11.7447 C.3     1  NEO1        0.0222
     30  O12        9.6709  -21.4717   -9.0261 O.3     1  NEO1       -0.3841
     31  C13        8.8109  -23.5740   -9.9860 C.3     1  NEO1        0.1884
     32  O13        5.7012  -24.8527   -9.4202 O.3     1  NEO1       -0.3876
     33  C14        9.0236  -22.7077   -8.7291 C.3     1  NEO1        0.1345
     34  C15        9.8464  -23.6278   -7.8374 C.3     1  NEO1        0.1205
     35  C16        9.2690  -25.0245   -8.1650 C.3     1  NEO1        0.1135
     36  C17        8.1177  -25.4175   -7.2172 C.3     1  NEO1        0.0730
     37  C18       12.1433  -23.3479   -7.0968 C.3     1  NEO1        0.1776
     38  C19       13.6001  -23.2393   -7.6058 C.3     1  NEO1        0.0853
     39  C20       14.6051  -23.1943   -6.4184 C.3     1  NEO1        0.1033
     40  C21       14.3205  -24.2677   -5.3362 C.3     1  NEO1        0.1100
     41  C22       12.8129  -24.2845   -4.9636 C.3     1  NEO1        0.1022
     42  C23       12.4282  -25.3809   -3.9401 C.3     1  NEO1        0.0222
     43  H01        2.7420  -21.4204  -10.0681 H       1  NEO1        0.0297
     44  H02        3.3700  -22.1519  -11.5437 H       1  NEO1        0.0297
     45  H03        5.1145  -18.9776  -11.3748 H       1  NEO1        0.1185
     46  H04        4.1478  -19.9231  -12.2908 H       1  NEO1        0.1185
     47  H05        4.2121  -22.8302   -8.6787 H       1  NEO1        0.0485
     48  H06        7.3255  -15.1121  -10.4046 H       1  NEO1        0.1183
     49  H07        5.8050  -14.6270  -10.7841 H       1  NEO1        0.1183
     50  H08        5.1753  -24.1191  -11.2909 H       1  NEO1        0.0636
     51  H09        9.5534  -21.2705  -11.2194 H       1  NEO1        0.1187
     52  H10        9.3867  -21.6995  -12.7884 H       1  NEO1        0.1187
     53  H11        9.3320  -16.8120   -9.8570 H       1  NEO1        0.2100
     54  H12        6.5756  -22.3146   -9.2676 H       1  NEO1        0.0650
     55  H13       13.1864  -26.9761   -4.9901 H       1  NEO1        0.1183
     56  H14       12.0984  -27.4135   -3.8404 H       1  NEO1        0.1183
     57  H15       11.2480  -17.4860  -11.2870 H       1  NEO1        0.2100
     58  H16        5.8865  -21.7747  -12.1654 H       1  NEO1        0.0639
     59  H17       13.7014  -25.2397   -8.0421 H       1  NEO1        0.1187
     60  H18       13.2557  -24.3192   -9.3058 H       1  NEO1        0.1187
     61  H19        4.9755  -20.4927   -9.5245 H       1  NEO1        0.0485
     62  H20        3.2239  -24.9361   -9.2121 H       1  NEO1        0.1185
     63  H21        2.1182  -23.7277   -9.2891 H       1  NEO1        0.1185
     64  H22        7.1939  -20.5145  -13.1644 H       1  NEO1        0.0927
     65  H23        9.3700  -26.1580   -5.9460 H       1  NEO1        0.2095
     66  H24        9.3134  -19.3959  -13.4668 H       1  NEO1        0.0535
     67  H25        9.4887  -18.9456  -10.4522 H       1  NEO1        0.0637
     68  H26        8.9649  -16.9018  -12.6750 H       1  NEO1        0.0646
     69  H27       14.2660  -25.5940   -6.7080 H       1  NEO1        0.2100
     70  H28        7.0779  -17.9845  -10.4936 H       1  NEO1        0.0636
     71  H29       15.2500  -21.9230   -5.1000 H       1  NEO1        0.2100
     72  H30        6.7405  -15.8136  -12.6287 H       1  NEO1        0.0448
     73  H31        5.3610  -16.6825  -11.9292 H       1  NEO1        0.0448
     74  H32        9.6060  -20.9220   -8.2290 H       1  NEO1        0.2101
     75  H33        9.7234  -23.5585  -10.6028 H       1  NEO1        0.0938
     76  H34        6.3950  -25.4000   -9.8440 H       1  NEO1        0.2100
     77  H35        8.1034  -22.5143   -8.1836 H       1  NEO1        0.0671
     78  H36        9.7142  -23.3670   -6.7829 H       1  NEO1        0.0651
     79  H37       10.0532  -25.7872   -8.1640 H       1  NEO1        0.0647
     80  H38        7.3322  -24.6575   -7.2382 H       1  NEO1        0.0584
     81  H39        7.6908  -26.3699   -7.5433 H       1  NEO1        0.0584
     82  H40       11.8450  -22.4224   -6.5789 H       1  NEO1        0.0927
     83  H41       13.7001  -22.3128   -8.1783 H       1  NEO1        0.0535
     84  H42       15.6168  -23.3396   -6.8094 H       1  NEO1        0.0637
     85  H43       14.9116  -24.0546   -4.4413 H       1  NEO1        0.0646
     86  H44       12.5571  -23.3157   -4.5235 H       1  NEO1        0.0636
     87  H45       13.1797  -25.4151   -3.1467 H       1  NEO1        0.0448
     88  H46       11.4670  -25.1183   -3.4902 H       1  NEO1        0.0448
@<TRIPOS>BOND
     1    66    21    1
     2    52     8    1
     3    64    19    1
     4    68    25    1
     5    72    29    1
     6     6    19    1
     7     6    27    1
     8    21    19    1
     9    21     8    1
    10    21    23    1
    11    73    29    1
    12    19     3    1
    13     8    51    1
    14    12    23    1
    15    12    57    1
    16    29    27    1
    17    29     5    1
    18    58    13    1
    19    25    23    1
    20    25    27    1
    21    25     9    1
    22    23    67    1
    23    27    70    1
    24    46     2    1
    25    75    31    1
    26    15    31    1
    27    15    10    1
    28    49     5    1
    29     3    13    1
    30    50     7    1
    31    13    10    1
    32    13    16    1
    33     9    53    1
    34     5    48    1
    35    44     1    1
    36     2    45    1
    37     2    16    1
    38    31    18    1
    39    31    33    1
    40    10     7    1
    41    10    54    1
    42    18    35    1
    43    76    32    1
    44     7    32    1
    45     7     4    1
    46    16     1    1
    47    16    61    1
    48     1     4    1
    49     1    43    1
    50    60    14    1
    51    30    33    1
    52    30    74    1
    53    62    17    1
    54    33    77    1
    55    33    34    1
    56     4    17    1
    57     4    47    1
    58    79    35    1
    59    35    34    1
    60    35    36    1
    61    17    63    1
    62    14    59    1
    63    14    38    1
    64    22    34    1
    65    22    37    1
    66    83    38    1
    67    34    78    1
    68    80    36    1
    69    81    36    1
    70    36    20    1
    71    38    37    1
    72    38    39    1
    73    37    82    1
    74    37    24    1
    75    69    26    1
    76    84    39    1
    77    20    65    1
    78    24    41    1
    79    39    28    1
    80    39    40    1
    81    26    40    1
    82    28    71    1
    83    55    11    1
    84    40    41    1
    85    40    85    1
    86    41    86    1
    87    41    42    1
    88    11    42    1
    89    11    56    1
    90    42    88    1
    91    42    87    1
