MODEL 1
REMARK VINA RESULT:      -6.1      0.000      0.000
REMARK  10 active torsions:
REMARK  status: ('A' for Active; 'I' for Inactive)
REMARK    1  A    between atoms: N_5  and  C_13 
REMARK    2  A    between atoms: N_6  and  C_21 
REMARK    3  A    between atoms: N_7  and  C_18 
REMARK       I    between atoms: N_7  and  C_24 
REMARK    4  A    between atoms: C_13  and  C_15 
REMARK    5  A    between atoms: C_15  and  C_16 
REMARK    6  A    between atoms: C_16  and  C_17 
REMARK    7  A    between atoms: C_17  and  C_24 
REMARK    8  A    between atoms: C_17  and  C_25 
REMARK    9  A    between atoms: C_21  and  C_28 
REMARK   10  A    between atoms: C_25  and  C_30 
ROOT
HETATM    1  O   MK1     0      18.341  43.077  29.765  0.00  0.00    -0.221 OA
HETATM    2  C   MK1     0      17.331  43.180  28.607  0.00  0.00     0.178 C 
ENDROOT
BRANCH   2   3
HETATM    3  C   MK1     0      16.105  42.248  28.570  0.00  0.00     0.135 C 
BRANCH   3   4
HETATM    4  N   MK1     0      14.907  42.589  27.664  0.00  0.00    -0.339 N 
HETATM    5  C   MK1     0      14.556  41.675  26.476  0.00  0.00     0.123 A 
HETATM    6  C   MK1     0      13.358  42.015  25.569  0.00  0.00     0.108 A 
HETATM    7  C   MK1     0      15.403  40.420  26.192  0.00  0.00     0.227 A 
HETATM    8  N   MK1     0      12.511  43.270  25.852  0.00  0.00    -0.339 N 
HETATM    9  C   MK1     0      13.568  41.099  24.947  0.00  0.00    -0.089 A 
HETATM   10  C   MK1     0      12.862  44.184  27.041  0.00  0.00     0.126 A 
HETATM   11  C   MK1     0      14.060  43.844  27.947  0.00  0.00     0.126 A 
HETATM   12  C   MK1     0      13.854  39.847  24.098  0.00  0.00     0.134 A 
HETATM   13  N   MK1     0      15.052  39.506  25.004  0.00  0.00    -0.237 NA
HETATM   14  C   MK1     0      14.141  38.594  23.248  0.00  0.00     0.037 C 
HETATM   15  C   MK1     0      12.656  40.187  23.192  0.00  0.00     0.037 C 
HETATM   16  O   MK1     0      16.601  40.080  27.099  0.00  0.00    -0.168 OA
BRANCH   8  17
HETATM   17  C   MK1     0      11.313  43.611  24.946  0.00  0.00     0.104 C 
BRANCH  17  18
HETATM   18  C   MK1     0       9.979  42.861  25.119  0.00  0.00     0.046 A 
HETATM   19  C   MK1     0       9.525  41.843  24.056  0.00  0.00     0.006 A 
HETATM   20  C   MK1     0       8.191  41.093  24.228  0.00  0.00     0.026 A 
HETATM   21  C   MK1     0       7.311  41.360  25.464  0.00  0.00     0.120 A 
HETATM   22  N   MK1     0       7.766  42.378  26.527  0.00  0.00    -0.295 NA
HETATM   23  C   MK1     0       9.100  43.128  26.354  0.00  0.00     0.122 A 
ENDBRANCH  17  18
ENDBRANCH   8  17
ENDBRANCH   3   4
ENDBRANCH   2   3
BRANCH   2  24
HETATM   24  C   MK1     0      17.546  44.213  27.487  0.00  0.00     0.061 C 
BRANCH  24  25
HETATM   25  C   MK1     0      17.974  43.749  26.082  0.00  0.00     0.002 C 
BRANCH  25  26
HETATM   26  C   MK1     0      17.482  44.510  24.837  0.00  0.00     0.205 C 
HETATM   27  O   MK1     0      18.478  44.896  23.728  0.00  0.00    -0.170 OA
HETATM   28  N   MK1     0      15.994  44.885  24.700  0.00  0.00    -0.219 NA
BRANCH  28  29
HETATM   29  C   MK1     0      15.503  45.646  23.455  0.00  0.00     0.100 A 
HETATM   30  C   MK1     0      15.992  47.021  22.991  0.00  0.00     0.130 A 
HETATM   31  O   MK1     0      17.060  47.884  23.688  0.00  0.00    -0.193 OA
HETATM   32  C   MK1     0      15.233  47.388  21.713  0.00  0.00     0.077 A 
HETATM   33  C   MK1     0      14.274  46.242  21.383  0.00  0.00    -0.040 A 
HETATM   34  C   MK1     0      14.442  45.160  22.465  0.00  0.00    -0.010 A 
HETATM   35  C   MK1     0      13.265  46.036  20.238  0.00  0.00     0.022 A 
HETATM   36  C   MK1     0      13.600  43.871  22.403  0.00  0.00     0.027 A 
HETATM   37  C   MK1     0      12.591  43.665  21.258  0.00  0.00     0.005 A 
HETATM   38  C   MK1     0      12.423  44.747  20.175  0.00  0.00     0.005 A 
ENDBRANCH  28  29
ENDBRANCH  25  26
BRANCH  25  39
HETATM   39  C   MK1     0      18.894  42.524  25.922  0.00  0.00     0.026 C 
BRANCH  39  40
HETATM   40  C   MK1     0      19.127  41.914  24.527  0.00  0.00     0.004 A 
HETATM   41  C   MK1     0      20.399  42.267  23.735  0.00  0.00     0.000 A 
HETATM   42  C   MK1     0      20.632  41.656  22.341  0.00  0.00     0.000 A 
HETATM   43  C   MK1     0      19.592  40.693  21.738  0.00  0.00     0.000 A 
HETATM   44  C   MK1     0      18.319  40.340  22.531  0.00  0.00     0.000 A 
HETATM   45  C   MK1     0      18.087  40.950  23.925  0.00  0.00     0.000 A 
ENDBRANCH  39  40
ENDBRANCH  25  39
ENDBRANCH  24  25
ENDBRANCH   2  24
TORSDOF 10
ENDMDL
