MODEL 1
REMARK VINA RESULT:      -9.6      0.000      0.000
REMARK  10 active torsions:
REMARK  status: ('A' for Active; 'I' for Inactive)
REMARK    1  A    between atoms: N_5  and  C_13 
REMARK    2  A    between atoms: N_6  and  C_21 
REMARK    3  A    between atoms: N_7  and  C_18 
REMARK       I    between atoms: N_7  and  C_24 
REMARK    4  A    between atoms: C_13  and  C_15 
REMARK    5  A    between atoms: C_15  and  C_16 
REMARK    6  A    between atoms: C_16  and  C_17 
REMARK    7  A    between atoms: C_17  and  C_24 
REMARK    8  A    between atoms: C_17  and  C_25 
REMARK    9  A    between atoms: C_21  and  C_28 
REMARK   10  A    between atoms: C_25  and  C_30 
ROOT
HETATM    1  O   MK1     0      19.697  19.950  11.207  0.00  0.00    -0.221 OA
HETATM    2  C   MK1     0      18.551  19.808  10.188  0.00  0.00     0.178 C 
ENDROOT
BRANCH   2   3
HETATM    3  C   MK1     0      18.353  20.879   9.098  0.00  0.00     0.135 C 
BRANCH   3   4
HETATM    4  N   MK1     0      17.004  20.988   8.364  0.00  0.00    -0.339 N 
HETATM    5  C   MK1     0      16.866  20.461   6.924  0.00  0.00     0.123 A 
HETATM    6  C   MK1     0      15.517  20.571   6.188  0.00  0.00     0.108 A 
HETATM    7  C   MK1     0      18.078  19.825   6.217  0.00  0.00     0.227 A 
HETATM    8  N   MK1     0      14.305  21.207   6.895  0.00  0.00    -0.339 N 
HETATM    9  C   MK1     0      15.971  20.079   5.281  0.00  0.00    -0.089 A 
HETATM   10  C   MK1     0      14.443  21.734   8.335  0.00  0.00     0.126 A 
HETATM   11  C   MK1     0      15.792  21.624   9.070  0.00  0.00     0.126 A 
HETATM   12  C   MK1     0      16.592  19.408   4.042  0.00  0.00     0.134 A 
HETATM   13  N   MK1     0      17.941  19.298   4.776  0.00  0.00    -0.237 NA
HETATM   14  C   MK1     0      17.212  18.736   2.802  0.00  0.00     0.037 C 
HETATM   15  C   MK1     0      15.243  19.517   3.307  0.00  0.00     0.037 C 
HETATM   16  O   MK1     0      19.427  19.716   6.952  0.00  0.00    -0.168 OA
BRANCH   8  17
HETATM   17  C   MK1     0      12.956  21.316   6.160  0.00  0.00     0.104 C 
BRANCH  17  18
HETATM   18  C   MK1     0      12.700  22.486   5.191  0.00  0.00     0.046 A 
HETATM   19  C   MK1     0      11.641  22.348   4.081  0.00  0.00     0.006 A 
HETATM   20  C   MK1     0      11.383  23.516   3.112  0.00  0.00     0.026 A 
HETATM   21  C   MK1     0      12.186  24.824   3.253  0.00  0.00     0.120 A 
HETATM   22  N   MK1     0      13.245  24.961   4.362  0.00  0.00    -0.295 NA
HETATM   23  C   MK1     0      13.502  23.792   5.331  0.00  0.00     0.122 A 
ENDBRANCH  17  18
ENDBRANCH   8  17
ENDBRANCH   3   4
ENDBRANCH   2   3
BRANCH   2  24
HETATM   24  C   MK1     0      17.604  18.596  10.257  0.00  0.00     0.061 C 
BRANCH  24  25
HETATM   25  C   MK1     0      18.168  17.194  10.551  0.00  0.00     0.002 C 
BRANCH  25  26
HETATM   26  C   MK1     0      18.607  16.281   9.391  0.00  0.00     0.205 C 
HETATM   27  O   MK1     0      18.103  14.827   9.323  0.00  0.00    -0.170 OA
HETATM   28  N   MK1     0      19.549  16.821   8.299  0.00  0.00    -0.219 NA
BRANCH  28  29
HETATM   29  C   MK1     0      19.987  15.909   7.139  0.00  0.00     0.100 A 
HETATM   30  C   MK1     0      19.151  15.560   5.904  0.00  0.00     0.130 A 
HETATM   31  O   MK1     0      17.726  16.062   5.606  0.00  0.00    -0.193 OA
HETATM   32  C   MK1     0      19.979  14.626   5.018  0.00  0.00     0.077 A 
HETATM   33  C   MK1     0      21.329  14.394   5.701  0.00  0.00    -0.040 A 
HETATM   34  C   MK1     0      21.334  15.191   7.019  0.00  0.00    -0.010 A 
HETATM   35  C   MK1     0      22.561  13.562   5.300  0.00  0.00     0.022 A 
HETATM   36  C   MK1     0      22.571  15.155   7.936  0.00  0.00     0.027 A 
HETATM   37  C   MK1     0      23.803  14.322   7.536  0.00  0.00     0.005 A 
HETATM   38  C   MK1     0      23.798  13.526   6.218  0.00  0.00     0.005 A 
ENDBRANCH  28  29
ENDBRANCH  25  26
BRANCH  25  39
HETATM   39  C   MK1     0      18.294  16.703  12.006  0.00  0.00     0.026 C 
BRANCH  39  40
HETATM   40  C   MK1     0      17.068  16.114  12.728  0.00  0.00     0.004 A 
HETATM   41  C   MK1     0      15.683  16.161  12.058  0.00  0.00     0.000 A 
HETATM   42  C   MK1     0      14.457  15.572  12.781  0.00  0.00     0.000 A 
HETATM   43  C   MK1     0      14.617  14.936  14.175  0.00  0.00     0.000 A 
HETATM   44  C   MK1     0      16.003  14.890  14.846  0.00  0.00     0.000 A 
HETATM   45  C   MK1     0      17.228  15.479  14.122  0.00  0.00     0.000 A 
ENDBRANCH  39  40
ENDBRANCH  25  39
ENDBRANCH  24  25
ENDBRANCH   2  24
TORSDOF 10
ENDMDL
