MODEL 1
REMARK VINA RESULT:     -11.2      0.000      0.000
REMARK  10 active torsions:
REMARK  status: ('A' for Active; 'I' for Inactive)
REMARK    1  A    between atoms: N_5  and  C_13 
REMARK    2  A    between atoms: N_6  and  C_21 
REMARK    3  A    between atoms: N_7  and  C_18 
REMARK       I    between atoms: N_7  and  C_24 
REMARK    4  A    between atoms: C_13  and  C_15 
REMARK    5  A    between atoms: C_15  and  C_16 
REMARK    6  A    between atoms: C_16  and  C_17 
REMARK    7  A    between atoms: C_17  and  C_24 
REMARK    8  A    between atoms: C_17  and  C_25 
REMARK    9  A    between atoms: C_21  and  C_28 
REMARK   10  A    between atoms: C_25  and  C_30 
ROOT
HETATM    1  O   MK1     0      11.642  22.827   6.606  0.00  0.00    -0.221 OA
HETATM    2  C   MK1     0      12.462  24.118   6.786  0.00  0.00     0.178 C 
ENDROOT
BRANCH   2   3
HETATM    3  C   MK1     0      12.094  25.382   5.986  0.00  0.00     0.135 C 
BRANCH   3   4
HETATM    4  N   MK1     0      10.927  25.345   4.984  0.00  0.00    -0.339 N 
HETATM    5  C   MK1     0       9.580  26.001   5.344  0.00  0.00     0.123 A 
HETATM    6  C   MK1     0       8.412  25.964   4.341  0.00  0.00     0.108 A 
HETATM    7  C   MK1     0       9.402  26.694   6.708  0.00  0.00     0.227 A 
HETATM    8  N   MK1     0       8.590  25.272   2.977  0.00  0.00    -0.339 N 
HETATM    9  C   MK1     0       7.768  26.534   5.071  0.00  0.00    -0.089 A 
HETATM   10  C   MK1     0       9.936  24.616   2.617  0.00  0.00     0.126 A 
HETATM   11  C   MK1     0      11.104  24.653   3.619  0.00  0.00     0.126 A 
HETATM   12  C   MK1     0       6.888  27.312   6.066  0.00  0.00     0.134 A 
HETATM   13  N   MK1     0       8.056  27.349   7.070  0.00  0.00    -0.237 NA
HETATM   14  C   MK1     0       6.008  28.091   7.063  0.00  0.00     0.037 C 
HETATM   15  C   MK1     0       5.720  27.276   5.063  0.00  0.00     0.037 C 
HETATM   16  O   MK1     0      10.571  26.730   7.711  0.00  0.00    -0.168 OA
BRANCH   8  17
HETATM   17  C   MK1     0       7.422  25.235   1.974  0.00  0.00     0.104 C 
BRANCH  17  18
HETATM   18  C   MK1     0       6.115  24.507   2.341  0.00  0.00     0.046 A 
HETATM   19  C   MK1     0       6.103  23.477   3.486  0.00  0.00     0.006 A 
HETATM   20  C   MK1     0       4.798  22.748   3.853  0.00  0.00     0.026 A 
HETATM   21  C   MK1     0       3.503  23.049   3.074  0.00  0.00     0.120 A 
HETATM   22  N   MK1     0       3.515  24.079   1.929  0.00  0.00    -0.295 NA
HETATM   23  C   MK1     0       4.821  24.808   1.563  0.00  0.00     0.122 A 
ENDBRANCH  17  18
ENDBRANCH   8  17
ENDBRANCH   3   4
ENDBRANCH   2   3
BRANCH   2  24
HETATM   24  C   MK1     0      13.650  24.146   7.765  0.00  0.00     0.061 C 
BRANCH  24  25
HETATM   25  C   MK1     0      14.986  23.487   7.374  0.00  0.00     0.002 C 
BRANCH  25  26
HETATM   26  C   MK1     0      15.142  22.823   5.993  0.00  0.00     0.205 C 
HETATM   27  O   MK1     0      15.428  23.688   4.751  0.00  0.00    -0.170 OA
HETATM   28  N   MK1     0      15.012  21.295   5.853  0.00  0.00    -0.219 NA
BRANCH  28  29
HETATM   29  C   MK1     0      15.168  20.632   4.473  0.00  0.00     0.100 A 
HETATM   30  C   MK1     0      14.403  21.011   3.201  0.00  0.00     0.130 A 
HETATM   31  O   MK1     0      13.343  22.121   3.081  0.00  0.00    -0.193 OA
HETATM   32  C   MK1     0      14.875  20.093   2.071  0.00  0.00     0.077 A 
HETATM   33  C   MK1     0      15.933  19.144   2.639  0.00  0.00    -0.040 A 
HETATM   34  C   MK1     0      16.115  19.479   4.131  0.00  0.00    -0.010 A 
HETATM   35  C   MK1     0      16.760  18.014   1.997  0.00  0.00     0.022 A 
HETATM   36  C   MK1     0      17.124  18.684   4.981  0.00  0.00     0.027 A 
HETATM   37  C   MK1     0      17.951  17.554   4.339  0.00  0.00     0.005 A 
HETATM   38  C   MK1     0      17.769  17.219   2.847  0.00  0.00     0.005 A 
ENDBRANCH  28  29
ENDBRANCH  25  26
BRANCH  25  39
HETATM   39  C   MK1     0      16.166  23.492   8.363  0.00  0.00     0.026 C 
BRANCH  39  40
HETATM   40  C   MK1     0      16.719  22.162   8.908  0.00  0.00     0.004 A 
HETATM   41  C   MK1     0      18.204  21.805   8.711  0.00  0.00     0.000 A 
HETATM   42  C   MK1     0      18.756  20.475   9.256  0.00  0.00     0.000 A 
HETATM   43  C   MK1     0      17.823  19.501  10.000  0.00  0.00     0.000 A 
HETATM   44  C   MK1     0      16.337  19.858  10.198  0.00  0.00     0.000 A 
HETATM   45  C   MK1     0      15.786  21.188   9.652  0.00  0.00     0.000 A 
ENDBRANCH  39  40
ENDBRANCH  25  39
ENDBRANCH  24  25
ENDBRANCH   2  24
TORSDOF 10
ENDMDL
