MODEL 1
REMARK VINA RESULT:      -8.6      0.000      0.000
REMARK  10 active torsions:
REMARK  status: ('A' for Active; 'I' for Inactive)
REMARK    1  A    between atoms: N_5  and  C_13 
REMARK    2  A    between atoms: N_6  and  C_21 
REMARK    3  A    between atoms: N_7  and  C_18 
REMARK       I    between atoms: N_7  and  C_24 
REMARK    4  A    between atoms: C_13  and  C_15 
REMARK    5  A    between atoms: C_15  and  C_16 
REMARK    6  A    between atoms: C_16  and  C_17 
REMARK    7  A    between atoms: C_17  and  C_24 
REMARK    8  A    between atoms: C_17  and  C_25 
REMARK    9  A    between atoms: C_21  and  C_28 
REMARK   10  A    between atoms: C_25  and  C_30 
ROOT
HETATM    1  O   MK1     0      23.487  13.314   6.521  0.00  0.00    -0.221 OA
HETATM    2  C   MK1     0      23.002  14.605   5.835  0.00  0.00     0.178 C 
ENDROOT
BRANCH   2   3
HETATM    3  C   MK1     0      23.762  15.926   6.057  0.00  0.00     0.135 C 
BRANCH   3   4
HETATM    4  N   MK1     0      24.901  16.329   5.103  0.00  0.00    -0.339 N 
HETATM    5  C   MK1     0      25.870  17.459   5.495  0.00  0.00     0.123 A 
HETATM    6  C   MK1     0      27.010  17.863   4.541  0.00  0.00     0.108 A 
HETATM    7  C   MK1     0      25.700  18.188   6.841  0.00  0.00     0.227 A 
HETATM    8  N   MK1     0      27.181  17.134   3.194  0.00  0.00    -0.339 N 
HETATM    9  C   MK1     0      27.348  18.648   5.275  0.00  0.00    -0.089 A 
HETATM   10  C   MK1     0      26.211  16.003   2.803  0.00  0.00     0.126 A 
HETATM   11  C   MK1     0      25.072  15.601   3.757  0.00  0.00     0.126 A 
HETATM   12  C   MK1     0      27.809  19.721   6.279  0.00  0.00     0.134 A 
HETATM   13  N   MK1     0      26.669  19.319   7.234  0.00  0.00    -0.237 NA
HETATM   14  C   MK1     0      28.270  20.795   7.283  0.00  0.00     0.037 C 
HETATM   15  C   MK1     0      28.949  20.124   5.325  0.00  0.00     0.037 C 
HETATM   16  O   MK1     0      24.560  17.785   7.795  0.00  0.00    -0.168 OA
BRANCH   8  17
HETATM   17  C   MK1     0      28.321  17.537   2.240  0.00  0.00     0.104 C 
BRANCH  17  18
HETATM   18  C   MK1     0      28.148  18.746   1.302  0.00  0.00     0.046 A 
HETATM   19  C   MK1     0      29.384  19.405   0.660  0.00  0.00     0.006 A 
HETATM   20  C   MK1     0      29.212  20.613  -0.278  0.00  0.00     0.026 A 
HETATM   21  C   MK1     0      27.804  21.164  -0.575  0.00  0.00     0.120 A 
HETATM   22  N   MK1     0      26.569  20.506   0.067  0.00  0.00    -0.295 NA
HETATM   23  C   MK1     0      26.741  19.297   1.005  0.00  0.00     0.122 A 
ENDBRANCH  17  18
ENDBRANCH   8  17
ENDBRANCH   3   4
ENDBRANCH   2   3
BRANCH   2  24
HETATM   24  C   MK1     0      21.759  14.575   4.927  0.00  0.00     0.061 C 
BRANCH  24  25
HETATM   25  C   MK1     0      20.373  14.280   5.529  0.00  0.00     0.002 C 
BRANCH  25  26
HETATM   26  C   MK1     0      19.329  15.407   5.649  0.00  0.00     0.205 C 
HETATM   27  O   MK1     0      18.138  15.253   6.612  0.00  0.00    -0.170 OA
HETATM   28  N   MK1     0      19.478  16.688   4.806  0.00  0.00    -0.219 NA
BRANCH  28  29
HETATM   29  C   MK1     0      18.435  17.813   4.926  0.00  0.00     0.100 A 
HETATM   30  C   MK1     0      18.241  18.735   6.134  0.00  0.00     0.130 A 
HETATM   31  O   MK1     0      19.056  18.696   7.440  0.00  0.00    -0.193 OA
HETATM   32  C   MK1     0      17.097  19.701   5.816  0.00  0.00     0.077 A 
HETATM   33  C   MK1     0      16.579  19.380   4.412  0.00  0.00    -0.040 A 
HETATM   34  C   MK1     0      17.411  18.208   3.859  0.00  0.00    -0.010 A 
HETATM   35  C   MK1     0      15.458  20.000   3.557  0.00  0.00     0.022 A 
HETATM   36  C   MK1     0      17.121  17.655   2.451  0.00  0.00     0.027 A 
HETATM   37  C   MK1     0      16.000  18.275   1.595  0.00  0.00     0.005 A 
HETATM   38  C   MK1     0      15.168  19.447   2.149  0.00  0.00     0.005 A 
ENDBRANCH  28  29
ENDBRANCH  25  26
BRANCH  25  39
HETATM   39  C   MK1     0      20.028  12.859   6.012  0.00  0.00     0.026 C 
BRANCH  39  40
HETATM   40  C   MK1     0      19.975  12.549   7.520  0.00  0.00     0.004 A 
HETATM   41  C   MK1     0      19.313  11.252   8.017  0.00  0.00     0.000 A 
HETATM   42  C   MK1     0      19.259  10.942   9.524  0.00  0.00     0.000 A 
HETATM   43  C   MK1     0      19.869  11.931  10.535  0.00  0.00     0.000 A 
HETATM   44  C   MK1     0      20.532  13.230  10.038  0.00  0.00     0.000 A 
HETATM   45  C   MK1     0      20.585  13.538   8.531  0.00  0.00     0.000 A 
ENDBRANCH  39  40
ENDBRANCH  25  39
ENDBRANCH  24  25
ENDBRANCH   2  24
TORSDOF 10
ENDMDL
