MODEL 1
REMARK VINA RESULT:      -6.0      0.000      0.000
REMARK  10 active torsions:
REMARK  status: ('A' for Active; 'I' for Inactive)
REMARK    1  A    between atoms: N_5  and  C_13 
REMARK    2  A    between atoms: N_6  and  C_21 
REMARK    3  A    between atoms: N_7  and  C_18 
REMARK       I    between atoms: N_7  and  C_24 
REMARK    4  A    between atoms: C_13  and  C_15 
REMARK    5  A    between atoms: C_15  and  C_16 
REMARK    6  A    between atoms: C_16  and  C_17 
REMARK    7  A    between atoms: C_17  and  C_24 
REMARK    8  A    between atoms: C_17  and  C_25 
REMARK    9  A    between atoms: C_21  and  C_28 
REMARK   10  A    between atoms: C_25  and  C_30 
ROOT
HETATM    1  O   MK1     0      13.000  41.700  26.349  0.00  0.00    -0.221 OA
HETATM    2  C   MK1     0      13.583  40.748  25.288  0.00  0.00     0.178 C 
ENDROOT
BRANCH   2   3
HETATM    3  C   MK1     0      14.942  40.065  25.530  0.00  0.00     0.135 C 
BRANCH   3   4
HETATM    4  N   MK1     0      16.179  40.914  25.875  0.00  0.00    -0.339 N 
HETATM    5  C   MK1     0      17.333  41.042  24.863  0.00  0.00     0.123 A 
HETATM    6  C   MK1     0      18.570  41.891  25.208  0.00  0.00     0.108 A 
HETATM    7  C   MK1     0      17.249  40.320  23.505  0.00  0.00     0.227 A 
HETATM    8  N   MK1     0      18.654  42.613  26.566  0.00  0.00    -0.339 N 
HETATM    9  C   MK1     0      19.022  41.639  24.206  0.00  0.00    -0.089 A 
HETATM   10  C   MK1     0      17.501  42.486  27.578  0.00  0.00     0.126 A 
HETATM   11  C   MK1     0      16.264  41.637  27.233  0.00  0.00     0.126 A 
HETATM   12  C   MK1     0      19.639  41.296  22.838  0.00  0.00     0.134 A 
HETATM   13  N   MK1     0      18.402  40.446  22.492  0.00  0.00    -0.237 NA
HETATM   14  C   MK1     0      20.257  40.952  21.469  0.00  0.00     0.037 C 
HETATM   15  C   MK1     0      20.877  42.145  23.183  0.00  0.00     0.037 C 
HETATM   16  O   MK1     0      16.011  39.470  23.161  0.00  0.00    -0.168 OA
BRANCH   8  17
HETATM   17  C   MK1     0      19.892  43.462  26.911  0.00  0.00     0.104 C 
BRANCH  17  18
HETATM   18  C   MK1     0      20.137  44.797  26.182  0.00  0.00     0.046 A 
HETATM   19  C   MK1     0      21.444  45.017  25.397  0.00  0.00     0.006 A 
HETATM   20  C   MK1     0      21.690  46.351  24.669  0.00  0.00     0.026 A 
HETATM   21  C   MK1     0      20.628  47.466  24.725  0.00  0.00     0.120 A 
HETATM   22  N   MK1     0      19.322  47.246  25.510  0.00  0.00    -0.295 NA
HETATM   23  C   MK1     0      19.076  45.911  26.239  0.00  0.00     0.122 A 
ENDBRANCH  17  18
ENDBRANCH   8  17
ENDBRANCH   3   4
ENDBRANCH   2   3
BRANCH   2  24
HETATM   24  C   MK1     0      12.808  40.479  23.986  0.00  0.00     0.061 C 
BRANCH  24  25
HETATM   25  C   MK1     0      11.958  41.595  23.350  0.00  0.00     0.002 C 
BRANCH  25  26
HETATM   26  C   MK1     0      12.644  42.836  22.747  0.00  0.00     0.205 C 
HETATM   27  O   MK1     0      12.628  43.060  21.224  0.00  0.00    -0.170 OA
HETATM   28  N   MK1     0      13.345  43.853  23.668  0.00  0.00    -0.219 NA
BRANCH  28  29
HETATM   29  C   MK1     0      14.030  45.092  23.065  0.00  0.00     0.100 A 
HETATM   30  C   MK1     0      13.326  46.368  22.593  0.00  0.00     0.130 A 
HETATM   31  O   MK1     0      11.810  46.635  22.640  0.00  0.00    -0.193 OA
HETATM   32  C   MK1     0      14.392  47.333  22.068  0.00  0.00     0.077 A 
HETATM   33  C   MK1     0      15.758  46.657  22.212  0.00  0.00    -0.040 A 
HETATM   34  C   MK1     0      15.533  45.265  22.832  0.00  0.00    -0.010 A 
HETATM   35  C   MK1     0      17.184  47.122  21.862  0.00  0.00     0.022 A 
HETATM   36  C   MK1     0      16.733  44.338  23.101  0.00  0.00     0.027 A 
HETATM   37  C   MK1     0      18.159  44.804  22.751  0.00  0.00     0.005 A 
HETATM   38  C   MK1     0      18.385  46.196  22.131  0.00  0.00     0.005 A 
ENDBRANCH  28  29
ENDBRANCH  25  26
BRANCH  25  39
HETATM   39  C   MK1     0      10.423  41.472  23.317  0.00  0.00     0.026 C 
BRANCH  39  40
HETATM   40  C   MK1     0       9.593  41.853  24.557  0.00  0.00     0.004 A 
HETATM   41  C   MK1     0      10.142  42.877  25.567  0.00  0.00     0.000 A 
HETATM   42  C   MK1     0       9.312  43.258  26.806  0.00  0.00     0.000 A 
HETATM   43  C   MK1     0       7.932  42.615  27.036  0.00  0.00     0.000 A 
HETATM   44  C   MK1     0       7.382  41.590  26.025  0.00  0.00     0.000 A 
HETATM   45  C   MK1     0       8.213  41.210  24.786  0.00  0.00     0.000 A 
ENDBRANCH  39  40
ENDBRANCH  25  39
ENDBRANCH  24  25
ENDBRANCH   2  24
TORSDOF 10
ENDMDL
