MODEL 1
REMARK VINA RESULT:      -6.7      0.000      0.000
REMARK  10 active torsions:
REMARK  status: ('A' for Active; 'I' for Inactive)
REMARK    1  A    between atoms: N_5  and  C_13 
REMARK    2  A    between atoms: N_6  and  C_21 
REMARK    3  A    between atoms: N_7  and  C_18 
REMARK       I    between atoms: N_7  and  C_24 
REMARK    4  A    between atoms: C_13  and  C_15 
REMARK    5  A    between atoms: C_15  and  C_16 
REMARK    6  A    between atoms: C_16  and  C_17 
REMARK    7  A    between atoms: C_17  and  C_24 
REMARK    8  A    between atoms: C_17  and  C_25 
REMARK    9  A    between atoms: C_21  and  C_28 
REMARK   10  A    between atoms: C_25  and  C_30 
ROOT
HETATM    1  O   MK1     0      19.487  14.538 -16.741  0.00  0.00    -0.221 OA
HETATM    2  C   MK1     0      19.986  14.322 -18.182  0.00  0.00     0.178 C 
ENDROOT
BRANCH   2   3
HETATM    3  C   MK1     0      21.100  13.297 -18.465  0.00  0.00     0.135 C 
BRANCH   3   4
HETATM    4  N   MK1     0      21.083  11.928 -17.760  0.00  0.00    -0.339 N 
HETATM    5  C   MK1     0      21.087  10.633 -18.593  0.00  0.00     0.123 A 
HETATM    6  C   MK1     0      21.070   9.263 -17.889  0.00  0.00     0.108 A 
HETATM    7  C   MK1     0      21.109  10.707 -20.132  0.00  0.00     0.227 A 
HETATM    8  N   MK1     0      21.049   9.189 -16.351  0.00  0.00    -0.339 N 
HETATM    9  C   MK1     0      21.081   8.747 -18.891  0.00  0.00    -0.089 A 
HETATM   10  C   MK1     0      21.045  10.485 -15.518  0.00  0.00     0.126 A 
HETATM   11  C   MK1     0      21.062  11.853 -16.222  0.00  0.00     0.126 A 
HETATM   12  C   MK1     0      21.096   8.043 -20.260  0.00  0.00     0.134 A 
HETATM   13  N   MK1     0      21.113   9.412 -20.966  0.00  0.00    -0.237 NA
HETATM   14  C   MK1     0      21.110   7.337 -21.630  0.00  0.00     0.037 C 
HETATM   15  C   MK1     0      21.078   6.673 -19.556  0.00  0.00     0.037 C 
HETATM   16  O   MK1     0      21.126  12.076 -20.836  0.00  0.00    -0.168 OA
BRANCH   8  17
HETATM   17  C   MK1     0      21.032   7.820 -15.646  0.00  0.00     0.104 C 
BRANCH  17  18
HETATM   18  C   MK1     0      21.918   7.578 -14.410  0.00  0.00     0.046 A 
HETATM   19  C   MK1     0      21.284   7.111 -13.087  0.00  0.00     0.006 A 
HETATM   20  C   MK1     0      22.169   6.870 -11.851  0.00  0.00     0.026 A 
HETATM   21  C   MK1     0      23.691   7.095 -11.938  0.00  0.00     0.120 A 
HETATM   22  N   MK1     0      24.326   7.562 -13.261  0.00  0.00    -0.295 NA
HETATM   23  C   MK1     0      23.439   7.804 -14.497  0.00  0.00     0.122 A 
ENDBRANCH  17  18
ENDBRANCH   8  17
ENDBRANCH   3   4
ENDBRANCH   2   3
BRANCH   2  24
HETATM   24  C   MK1     0      19.373  15.130 -19.340  0.00  0.00     0.061 C 
BRANCH  24  25
HETATM   25  C   MK1     0      17.844  15.171 -19.525  0.00  0.00     0.002 C 
BRANCH  25  26
HETATM   26  C   MK1     0      16.991  13.942 -19.159  0.00  0.00     0.205 C 
HETATM   27  O   MK1     0      16.544  13.723 -17.702  0.00  0.00    -0.170 OA
HETATM   28  N   MK1     0      16.585  12.933 -20.250  0.00  0.00    -0.219 NA
BRANCH  28  29
HETATM   29  C   MK1     0      15.732  11.706 -19.883  0.00  0.00     0.100 A 
HETATM   30  C   MK1     0      14.311  11.735 -19.312  0.00  0.00     0.130 A 
HETATM   31  O   MK1     0      13.487  12.999 -19.005  0.00  0.00    -0.193 OA
HETATM   32  C   MK1     0      13.853  10.290 -19.101  0.00  0.00     0.077 A 
HETATM   33  C   MK1     0      14.989   9.362 -19.540  0.00  0.00    -0.040 A 
HETATM   34  C   MK1     0      16.156  10.241 -20.026  0.00  0.00    -0.010 A 
HETATM   35  C   MK1     0      15.119   7.827 -19.563  0.00  0.00     0.022 A 
HETATM   36  C   MK1     0      17.453   9.586 -20.535  0.00  0.00     0.027 A 
HETATM   37  C   MK1     0      17.584   8.052 -20.558  0.00  0.00     0.005 A 
HETATM   38  C   MK1     0      16.417   7.172 -20.072  0.00  0.00     0.005 A 
ENDBRANCH  28  29
ENDBRANCH  25  26
BRANCH  25  39
HETATM   39  C   MK1     0      17.168  16.441 -20.077  0.00  0.00     0.026 C 
BRANCH  39  40
HETATM   40  C   MK1     0      17.832  17.816 -19.876  0.00  0.00     0.004 A 
HETATM   41  C   MK1     0      18.513  18.523 -21.061  0.00  0.00     0.000 A 
HETATM   42  C   MK1     0      19.176  19.898 -20.860  0.00  0.00     0.000 A 
HETATM   43  C   MK1     0      19.159  20.566 -19.473  0.00  0.00     0.000 A 
HETATM   44  C   MK1     0      18.478  19.858 -18.286  0.00  0.00     0.000 A 
HETATM   45  C   MK1     0      17.815  18.483 -18.488  0.00  0.00     0.000 A 
ENDBRANCH  39  40
ENDBRANCH  25  39
ENDBRANCH  24  25
ENDBRANCH   2  24
TORSDOF 10
ENDMDL
