MODEL 1
REMARK VINA RESULT:      -7.1      0.000      0.000
REMARK  10 active torsions:
REMARK  status: ('A' for Active; 'I' for Inactive)
REMARK    1  A    between atoms: N_5  and  C_13 
REMARK    2  A    between atoms: N_6  and  C_21 
REMARK    3  A    between atoms: N_7  and  C_18 
REMARK       I    between atoms: N_7  and  C_24 
REMARK    4  A    between atoms: C_13  and  C_15 
REMARK    5  A    between atoms: C_15  and  C_16 
REMARK    6  A    between atoms: C_16  and  C_17 
REMARK    7  A    between atoms: C_17  and  C_24 
REMARK    8  A    between atoms: C_17  and  C_25 
REMARK    9  A    between atoms: C_21  and  C_28 
REMARK   10  A    between atoms: C_25  and  C_30 
ROOT
HETATM    1  O   MK1     0      30.096  22.119  -6.114  0.00  0.00    -0.221 OA
HETATM    2  C   MK1     0      30.974  20.982  -6.668  0.00  0.00     0.178 C 
ENDROOT
BRANCH   2   3
HETATM    3  C   MK1     0      31.712  21.161  -8.007  0.00  0.00     0.135 C 
BRANCH   3   4
HETATM    4  N   MK1     0      31.116  20.574  -9.299  0.00  0.00    -0.339 N 
HETATM    5  C   MK1     0      30.794  21.498 -10.488  0.00  0.00     0.123 A 
HETATM    6  C   MK1     0      30.197  20.912 -11.781  0.00  0.00     0.108 A 
HETATM    7  C   MK1     0      31.068  23.010 -10.385  0.00  0.00     0.227 A 
HETATM    8  N   MK1     0      29.922  19.400 -11.885  0.00  0.00    -0.339 N 
HETATM    9  C   MK1     0      30.177  21.941 -12.239  0.00  0.00    -0.089 A 
HETATM   10  C   MK1     0      30.244  18.475 -10.696  0.00  0.00     0.126 A 
HETATM   11  C   MK1     0      30.841  19.062  -9.403  0.00  0.00     0.126 A 
HETATM   12  C   MK1     0      30.150  23.348 -12.866  0.00  0.00     0.134 A 
HETATM   13  N   MK1     0      30.747  23.936 -11.573  0.00  0.00    -0.237 NA
HETATM   14  C   MK1     0      30.122  24.755 -13.493  0.00  0.00     0.037 C 
HETATM   15  C   MK1     0      29.553  22.761 -14.159  0.00  0.00     0.037 C 
HETATM   16  O   MK1     0      31.665  23.597  -9.092  0.00  0.00    -0.168 OA
BRANCH   8  17
HETATM   17  C   MK1     0      29.325  18.813 -13.177  0.00  0.00     0.104 C 
BRANCH  17  18
HETATM   18  C   MK1     0      29.966  17.573 -13.828  0.00  0.00     0.046 A 
HETATM   19  C   MK1     0      29.494  16.162 -13.426  0.00  0.00     0.006 A 
HETATM   20  C   MK1     0      30.134  14.922 -14.076  0.00  0.00     0.026 A 
HETATM   21  C   MK1     0      31.247  15.091 -15.128  0.00  0.00     0.120 A 
HETATM   22  N   MK1     0      31.718  16.501 -15.529  0.00  0.00    -0.295 NA
HETATM   23  C   MK1     0      31.078  17.742 -14.879  0.00  0.00     0.122 A 
ENDBRANCH  17  18
ENDBRANCH   8  17
ENDBRANCH   3   4
ENDBRANCH   2   3
BRANCH   2  24
HETATM   24  C   MK1     0      31.114  19.665  -5.882  0.00  0.00     0.061 C 
BRANCH  24  25
HETATM   25  C   MK1     0      29.862  18.967  -5.319  0.00  0.00     0.002 C 
BRANCH  25  26
HETATM   26  C   MK1     0      29.475  17.561  -5.815  0.00  0.00     0.205 C 
HETATM   27  O   MK1     0      29.872  16.319  -4.994  0.00  0.00    -0.170 OA
HETATM   28  N   MK1     0      28.693  17.396  -7.131  0.00  0.00    -0.219 NA
BRANCH  28  29
HETATM   29  C   MK1     0      28.307  15.991  -7.627  0.00  0.00     0.100 A 
HETATM   30  C   MK1     0      27.083  15.185  -7.181  0.00  0.00     0.130 A 
HETATM   31  O   MK1     0      26.024  15.640  -6.159  0.00  0.00    -0.193 OA
HETATM   32  C   MK1     0      27.095  13.850  -7.929  0.00  0.00     0.077 A 
HETATM   33  C   MK1     0      28.326  13.825  -8.838  0.00  0.00    -0.040 A 
HETATM   34  C   MK1     0      29.078  15.155  -8.651  0.00  0.00    -0.010 A 
HETATM   35  C   MK1     0      28.867  12.765  -9.817  0.00  0.00     0.022 A 
HETATM   36  C   MK1     0      30.372  15.426  -9.442  0.00  0.00     0.027 A 
HETATM   37  C   MK1     0      30.912  14.367 -10.421  0.00  0.00     0.005 A 
HETATM   38  C   MK1     0      30.160  13.037 -10.609  0.00  0.00     0.005 A 
ENDBRANCH  28  29
ENDBRANCH  25  26
BRANCH  25  39
HETATM   39  C   MK1     0      28.996  19.674  -4.259  0.00  0.00     0.026 C 
BRANCH  39  40
HETATM   40  C   MK1     0      29.537  19.873  -2.831  0.00  0.00     0.004 A 
HETATM   41  C   MK1     0      30.881  19.242  -2.421  0.00  0.00     0.000 A 
HETATM   42  C   MK1     0      31.421  19.441  -0.993  0.00  0.00     0.000 A 
HETATM   43  C   MK1     0      30.618  20.271   0.026  0.00  0.00     0.000 A 
HETATM   44  C   MK1     0      29.274  20.902  -0.384  0.00  0.00     0.000 A 
HETATM   45  C   MK1     0      28.734  20.703  -1.812  0.00  0.00     0.000 A 
ENDBRANCH  39  40
ENDBRANCH  25  39
ENDBRANCH  24  25
ENDBRANCH   2  24
TORSDOF 10
ENDMDL
