MODEL 1
REMARK VINA RESULT:     -11.1      0.000      0.000
REMARK  10 active torsions:
REMARK  status: ('A' for Active; 'I' for Inactive)
REMARK    1  A    between atoms: N_5  and  C_13 
REMARK    2  A    between atoms: N_6  and  C_21 
REMARK    3  A    between atoms: N_7  and  C_18 
REMARK       I    between atoms: N_7  and  C_24 
REMARK    4  A    between atoms: C_13  and  C_15 
REMARK    5  A    between atoms: C_15  and  C_16 
REMARK    6  A    between atoms: C_16  and  C_17 
REMARK    7  A    between atoms: C_17  and  C_24 
REMARK    8  A    between atoms: C_17  and  C_25 
REMARK    9  A    between atoms: C_21  and  C_28 
REMARK   10  A    between atoms: C_25  and  C_30 
ROOT
HETATM    1  O   MK1     0      11.667  22.793   6.557  0.00  0.00    -0.221 OA
HETATM    2  C   MK1     0      12.471  24.090   6.766  0.00  0.00     0.178 C 
ENDROOT
BRANCH   2   3
HETATM    3  C   MK1     0      12.084  25.368   5.998  0.00  0.00     0.135 C 
BRANCH   3   4
HETATM    4  N   MK1     0      10.909  25.342   5.003  0.00  0.00    -0.339 N 
HETATM    5  C   MK1     0       9.570  26.007   5.374  0.00  0.00     0.123 A 
HETATM    6  C   MK1     0       8.395  25.981   4.379  0.00  0.00     0.108 A 
HETATM    7  C   MK1     0       9.407  26.699   6.741  0.00  0.00     0.227 A 
HETATM    8  N   MK1     0       8.558  25.289   3.013  0.00  0.00    -0.339 N 
HETATM    9  C   MK1     0       7.760  26.554   5.114  0.00  0.00    -0.089 A 
HETATM   10  C   MK1     0       9.897  24.624   2.642  0.00  0.00     0.126 A 
HETATM   11  C   MK1     0      11.072  24.650   3.637  0.00  0.00     0.126 A 
HETATM   12  C   MK1     0       6.894  27.337   6.117  0.00  0.00     0.134 A 
HETATM   13  N   MK1     0       8.068  27.364   7.112  0.00  0.00    -0.237 NA
HETATM   14  C   MK1     0       6.026  28.121   7.121  0.00  0.00     0.037 C 
HETATM   15  C   MK1     0       5.718  27.311   5.122  0.00  0.00     0.037 C 
HETATM   16  O   MK1     0      10.582  26.725   7.735  0.00  0.00    -0.168 OA
BRANCH   8  17
HETATM   17  C   MK1     0       7.383  25.263   2.018  0.00  0.00     0.104 C 
BRANCH  17  18
HETATM   18  C   MK1     0       6.032  24.653   2.438  0.00  0.00     0.046 A 
HETATM   19  C   MK1     0       5.996  23.456   3.407  0.00  0.00     0.006 A 
HETATM   20  C   MK1     0       4.647  22.845   3.827  0.00  0.00     0.026 A 
HETATM   21  C   MK1     0       3.332  23.432   3.278  0.00  0.00     0.120 A 
HETATM   22  N   MK1     0       3.368  24.629   2.310  0.00  0.00    -0.295 NA
HETATM   23  C   MK1     0       4.719  25.239   1.890  0.00  0.00     0.122 A 
ENDBRANCH  17  18
ENDBRANCH   8  17
ENDBRANCH   3   4
ENDBRANCH   2   3
BRANCH   2  24
HETATM   24  C   MK1     0      13.662  24.110   7.741  0.00  0.00     0.061 C 
BRANCH  24  25
HETATM   25  C   MK1     0      14.998  23.460   7.338  0.00  0.00     0.002 C 
BRANCH  25  26
HETATM   26  C   MK1     0      15.139  22.776   5.965  0.00  0.00     0.205 C 
HETATM   27  O   MK1     0      15.365  23.627   4.701  0.00  0.00    -0.170 OA
HETATM   28  N   MK1     0      15.054  21.242   5.856  0.00  0.00    -0.219 NA
BRANCH  28  29
HETATM   29  C   MK1     0      15.195  20.559   4.484  0.00  0.00     0.100 A 
HETATM   30  C   MK1     0      14.347  20.852   3.242  0.00  0.00     0.130 A 
HETATM   31  O   MK1     0      13.205  21.881   3.149  0.00  0.00    -0.193 OA
HETATM   32  C   MK1     0      14.833  19.943   2.110  0.00  0.00     0.077 A 
HETATM   33  C   MK1     0      15.981  19.086   2.647  0.00  0.00    -0.040 A 
HETATM   34  C   MK1     0      16.206  19.469   4.122  0.00  0.00    -0.010 A 
HETATM   35  C   MK1     0      16.858  18.003   1.990  0.00  0.00     0.022 A 
HETATM   36  C   MK1     0      17.308  18.769   4.940  0.00  0.00     0.027 A 
HETATM   37  C   MK1     0      18.184  17.686   4.283  0.00  0.00     0.005 A 
HETATM   38  C   MK1     0      17.959  17.303   2.808  0.00  0.00     0.005 A 
ENDBRANCH  28  29
ENDBRANCH  25  26
BRANCH  25  39
HETATM   39  C   MK1     0      16.195  23.495   8.307  0.00  0.00     0.026 C 
BRANCH  39  40
HETATM   40  C   MK1     0      16.753  22.182   8.889  0.00  0.00     0.004 A 
HETATM   41  C   MK1     0      18.250  21.851   8.747  0.00  0.00     0.000 A 
HETATM   42  C   MK1     0      18.807  20.539   9.329  0.00  0.00     0.000 A 
HETATM   43  C   MK1     0      17.867  19.557  10.053  0.00  0.00     0.000 A 
HETATM   44  C   MK1     0      16.368  19.888  10.194  0.00  0.00     0.000 A 
HETATM   45  C   MK1     0      15.812  21.200   9.612  0.00  0.00     0.000 A 
ENDBRANCH  39  40
ENDBRANCH  25  39
ENDBRANCH  24  25
ENDBRANCH   2  24
TORSDOF 10
ENDMDL
