MODEL 1
REMARK VINA RESULT:    -8.758      0.000      0.000
REMARK INTER + INTRA:         -10.352
REMARK INTER:                 -10.038
REMARK INTRA:                  -0.314
REMARK UNBOUND:                -0.314
REMARK  4 active torsions:
REMARK  status: ('A' for Active; 'I' for Inactive)
REMARK    1  A    between atoms: C3_3  and  O5_20 
REMARK    2  A    between atoms: C6_6  and  C7_7 
REMARK    3  A    between atoms: C11_12  and  O4_19 
REMARK    4  A    between atoms: C13_14  and  O3_18 
ROOT
HETATM    1  C7  API     1      30.427   8.455 -10.060  1.00  0.00     0.090 A 
HETATM    2  C8  API     1      29.172   8.613 -10.506  1.00  0.00     0.094 A 
HETATM    3  C9  API     1      28.340   7.423 -10.731  1.00  0.00     0.190 A 
HETATM    4  O1  API     1      27.189   7.510 -11.142  1.00  0.00    -0.287 OA
HETATM    5  C10 API     1      28.947   6.119 -10.441  1.00  0.00     0.081 A 
HETATM    6  C11 API     1      28.242   4.924 -10.620  1.00  0.00     0.085 A 
HETATM    7  C12 API     1      28.848   3.703 -10.334  1.00  0.00     0.074 A 
HETATM    8  C13 API     1      30.159   3.688  -9.867  1.00  0.00     0.071 A 
HETATM    9  C14 API     1      30.871   4.871  -9.684  1.00  0.00     0.075 A 
HETATM   10  C15 API     1      30.259   6.091  -9.973  1.00  0.00     0.095 A 
HETATM   11  O2  API     1      31.003   7.227  -9.773  1.00  0.00    -0.309 OA
ENDROOT
BRANCH   1  12
HETATM   12  C6  API     1      31.310   9.610  -9.805  1.00  0.00    -0.002 A 
HETATM   13  C1  API     1      32.571   9.412  -9.218  1.00  0.00     0.017 A 
HETATM   14  C2  API     1      33.428  10.490  -8.975  1.00  0.00     0.037 A 
HETATM   15  C3  API     1      33.027  11.774  -9.327  1.00  0.00     0.065 A 
HETATM   16  C4  API     1      31.789  11.994  -9.918  1.00  0.00     0.037 A 
HETATM   17  C5  API     1      30.935  10.916 -10.159  1.00  0.00     0.017 A 
BRANCH  15  18
HETATM   18  O5  API     1      33.828  12.854  -9.110  1.00  0.00    -0.361 OA
HETATM   19  H10 API     1      34.451  12.934  -9.852  1.00  0.00     0.217 HD
ENDBRANCH  15  18
ENDBRANCH   1  12
BRANCH   6  20
HETATM   20  O4  API     1      26.951   4.881 -11.075  1.00  0.00    -0.360 OA
HETATM   21  H9  API     1      26.954   4.464 -11.967  1.00  0.00     0.217 HD
ENDBRANCH   6  20
BRANCH   8  22
HETATM   22  O3  API     1      30.794   2.518  -9.574  1.00  0.00    -0.361 OA
HETATM   23  H8  API     1      30.258   2.023  -8.931  1.00  0.00     0.217 HD
ENDBRANCH   8  22
TORSDOF 4
ENDMDL
