MODEL 1
REMARK VINA RESULT:    -9.546      0.000      0.000
REMARK INTER + INTRA:         -15.064
REMARK INTER:                 -13.452
REMARK INTRA:                  -1.612
REMARK UNBOUND:                -1.612
REMARK  10 active torsions:
REMARK  status: ('A' for Active; 'I' for Inactive)
REMARK    1  A    between atoms: C4_4  and  C7_7 
REMARK    2  A    between atoms: C11_12  and  O11_32 
REMARK    3  A    between atoms: C12_13  and  O10_31 
REMARK    4  A    between atoms: C13_14  and  O3_18 
REMARK    5  A    between atoms: O3_18  and  C16_19 
REMARK    6  A    between atoms: C17_20  and  O9_30 
REMARK    7  A    between atoms: C18_21  and  O8_29 
REMARK    8  A    between atoms: C19_22  and  O7_28 
REMARK    9  A    between atoms: C20_23  and  C21_25 
REMARK   10  A    between atoms: C21_25  and  O6_27 
ROOT
HETATM    1  C7  BAI     1      31.036   6.690  -9.494  1.00  0.00     0.090 A 
HETATM    2  C8  BAI     1      30.514   7.848  -9.927  1.00  0.00     0.094 A 
HETATM    3  C9  BAI     1      31.180   9.106  -9.567  1.00  0.00     0.190 A 
HETATM    4  O1  BAI     1      30.755  10.196  -9.934  1.00  0.00    -0.287 OA
HETATM    5  C10 BAI     1      32.387   9.012  -8.742  1.00  0.00     0.084 A 
HETATM    6  C11 BAI     1      33.090  10.148  -8.341  1.00  0.00     0.118 A 
HETATM    7  C12 BAI     1      34.235  10.018  -7.552  1.00  0.00     0.134 A 
HETATM    8  C13 BAI     1      34.690   8.754  -7.171  1.00  0.00     0.110 A 
HETATM    9  C14 BAI     1      33.966   7.621  -7.557  1.00  0.00     0.078 A 
HETATM   10  C15 BAI     1      32.823   7.750  -8.348  1.00  0.00     0.096 A 
HETATM   11  O2  BAI     1      32.170   6.596  -8.700  1.00  0.00    -0.309 OA
ENDROOT
BRANCH   8  12
HETATM   12  O3  BAI     1      35.767   8.523  -6.363  1.00  0.00    -0.315 OA
BRANCH  12  13
HETATM   13  C16 BAI     1      35.589   8.920  -4.997  1.00  0.00     0.299 C 
HETATM   14  C17 BAI     1      36.018   7.743  -4.089  1.00  0.00     0.205 C 
HETATM   15  C18 BAI     1      37.203   8.138  -3.219  1.00  0.00     0.183 C 
HETATM   16  C19 BAI     1      38.295   8.759  -4.085  1.00  0.00     0.189 C 
HETATM   17  C20 BAI     1      37.756   9.998  -4.821  1.00  0.00     0.253 C 
HETATM   18  O4  BAI     1      36.331  10.119  -4.719  1.00  0.00    -0.340 OA
BRANCH  14  19
HETATM   19  O9  BAI     1      34.956   7.313  -3.217  1.00  0.00    -0.388 OA
HETATM   20  H16 BAI     1      34.277   8.018  -3.277  1.00  0.00     0.210 HD
ENDBRANCH  14  19
BRANCH  15  21
HETATM   21  O8  BAI     1      37.733   6.977  -2.553  1.00  0.00    -0.390 OA
HETATM   22  H15 BAI     1      38.336   6.570  -3.206  1.00  0.00     0.210 HD
ENDBRANCH  15  21
BRANCH  16  23
HETATM   23  O7  BAI     1      39.395   9.113  -3.229  1.00  0.00    -0.390 OA
HETATM   24  H14 BAI     1      40.189   9.044  -3.797  1.00  0.00     0.210 HD
ENDBRANCH  16  23
BRANCH  17  25
HETATM   25  C21 BAI     1      38.266  10.112  -6.266  1.00  0.00     0.172 C 
HETATM   26  O5  BAI     1      39.160   9.455  -6.781  1.00  0.00    -0.648 OA
BRANCH  25  27
HETATM   27  O6  BAI     1      37.579  10.988  -7.025  1.00  0.00    -0.774 OA
HETATM   28  H13 BAI     1      37.444  10.516  -7.873  1.00  0.00     0.167 HD
ENDBRANCH  25  27
ENDBRANCH  17  25
ENDBRANCH  12  13
ENDBRANCH   8  12
BRANCH   7  29
HETATM   29  O10 BAI     1      34.875  11.167  -7.157  1.00  0.00    -0.356 OA
HETATM   30  H17 BAI     1      35.043  11.022  -6.199  1.00  0.00     0.218 HD
ENDBRANCH   7  29
BRANCH   6  31
HETATM   31  O11 BAI     1      32.713  11.428  -8.671  1.00  0.00    -0.357 OA
HETATM   32  H18 BAI     1      33.067  11.620  -9.573  1.00  0.00     0.217 HD
ENDBRANCH   6  31
BRANCH   1  33
HETATM   33  C4  BAI     1      30.411   5.391  -9.812  1.00  0.00    -0.002 A 
HETATM   34  C3  BAI     1      31.119   4.185  -9.689  1.00  0.00     0.014 A 
HETATM   35  C2  BAI     1      30.507   2.964  -9.987  1.00  0.00     0.001 A 
HETATM   36  C1  BAI     1      29.179   2.932 -10.404  1.00  0.00     0.000 A 
HETATM   37  C6  BAI     1      28.460   4.119 -10.521  1.00  0.00     0.001 A 
HETATM   38  C5  BAI     1      29.071   5.340 -10.223  1.00  0.00     0.014 A 
ENDBRANCH   1  33
TORSDOF 10
ENDMDL
