MODEL 1
REMARK VINA RESULT:    -9.313      0.000      0.000
REMARK INTER + INTRA:         -10.472
REMARK INTER:                 -10.402
REMARK INTRA:                  -0.069
REMARK UNBOUND:                -0.069
REMARK  2 active torsions:
REMARK  status: ('A' for Active; 'I' for Inactive)
REMARK    1  A    between atoms: O1_2  and  C2_3 
REMARK    2  A    between atoms: C3_4  and  O4_24 
ROOT
HETATM    1  C2  BER     1      55.016  17.264   9.091  1.00  0.00     0.102 A 
HETATM    2  C3  BER     1      53.872  16.446   9.169  1.00  0.00     0.114 A 
HETATM    3  C4  BER     1      53.236  16.217  10.417  1.00  0.00     0.026 A 
HETATM    4  C5  BER     1      52.131  15.369  10.555  1.00  0.00     0.106 A 
HETATM    5  N1  BER     1      51.529  15.152  11.747  1.00  0.00    -0.355 N 
HETATM    6  C6  BER     1      51.962  15.778  12.877  1.00  0.00     0.046 A 
HETATM    7  C7  BER     1      53.072  16.631  12.794  1.00  0.00     0.043 A 
HETATM    8  C8  BER     1      53.714  16.853  11.571  1.00  0.00    -0.019 A 
HETATM    9  C9  BER     1      54.827  17.697  11.477  1.00  0.00     0.015 A 
HETATM   10  C10 BER     1      55.472  17.894  10.253  1.00  0.00     0.040 A 
HETATM   11  C11 BER     1      51.240  15.472  14.129  1.00  0.00    -0.000 A 
HETATM   12  C12 BER     1      51.297  16.316  15.256  1.00  0.00     0.054 A 
HETATM   13  C13 BER     1      50.627  15.945  16.406  1.00  0.00     0.105 A 
HETATM   14  C14 BER     1      49.909  14.781  16.486  1.00  0.00     0.105 A 
HETATM   15  C15 BER     1      49.808  13.922  15.416  1.00  0.00     0.047 A 
HETATM   16  C16 BER     1      50.465  14.281  14.227  1.00  0.00    -0.041 A 
HETATM   17  C17 BER     1      50.379  13.385  13.022  1.00  0.00     0.060 C 
HETATM   18  C18 BER     1      50.345  14.253  11.777  1.00  0.00     0.133 C 
HETATM   19  O2  BER     1      49.335  14.605  17.704  1.00  0.00    -0.323 OA
HETATM   20  C19 BER     1      49.779  15.795  18.391  1.00  0.00     0.352 A 
HETATM   21  O3  BER     1      50.597  16.654  17.565  1.00  0.00    -0.323 OA
ENDROOT
BRANCH   1  22
HETATM   22  O1  BER     1      55.639  17.376   7.880  1.00  0.00    -0.353 OA
HETATM   23  C1  BER     1      55.856  18.676   7.345  1.00  0.00     0.210 C 
ENDBRANCH   1  22
BRANCH   2  24
HETATM   24  O4  BER     1      53.307  15.762   8.114  1.00  0.00    -0.352 OA
HETATM   25  C20 BER     1      52.455  16.507   7.244  1.00  0.00     0.210 C 
ENDBRANCH   2  24
TORSDOF 2
ENDMDL
