MODEL 1
REMARK VINA RESULT:    -8.162      0.000      0.000
REMARK INTER + INTRA:         -10.154
REMARK INTER:                  -9.833
REMARK INTRA:                  -0.322
REMARK UNBOUND:                -0.322
REMARK  6 active torsions:
REMARK  status: ('A' for Active; 'I' for Inactive)
REMARK    1  A    between atoms: C2_2  and  O6_21 
REMARK    2  A    between atoms: C3_3  and  C10_13 
REMARK    3  A    between atoms: C6_7  and  O3_12 
REMARK    4  A    between atoms: C8_9  and  O2_11 
REMARK    5  A    between atoms: C12_15  and  O5_20 
REMARK    6  A    between atoms: C13_16  and  O4_19 
ROOT
HETATM    1  C1  CAT     1      27.867  12.044  -8.397  1.00  0.00     0.079 C 
HETATM    2  C2  CAT     1      27.706  10.555  -8.697  1.00  0.00     0.156 C 
HETATM    3  C3  CAT     1      27.793  10.354 -10.222  1.00  0.00     0.191 C 
HETATM    4  O1  CAT     1      26.749  11.056 -10.908  1.00  0.00    -0.338 OA
HETATM    5  C4  CAT     1      26.577  12.361 -10.532  1.00  0.00     0.081 A 
HETATM    6  C5  CAT     1      25.814  13.137 -11.406  1.00  0.00     0.074 A 
HETATM    7  C6  CAT     1      25.580  14.474 -11.117  1.00  0.00     0.071 A 
HETATM    8  C7  CAT     1      26.099  15.049  -9.964  1.00  0.00     0.073 A 
HETATM    9  C8  CAT     1      26.852  14.266  -9.090  1.00  0.00     0.077 A 
HETATM   10  C9  CAT     1      27.084  12.906  -9.344  1.00  0.00     0.011 A 
ENDROOT
BRANCH   3  11
HETATM   11  C10 CAT     1      27.676   8.882 -10.595  1.00  0.00    -0.024 A 
HETATM   12  C11 CAT     1      26.424   8.245 -10.639  1.00  0.00     0.049 A 
HETATM   13  C12 CAT     1      26.349   6.895 -10.953  1.00  0.00     0.099 A 
HETATM   14  C13 CAT     1      27.498   6.161 -11.231  1.00  0.00     0.098 A 
HETATM   15  C14 CAT     1      28.745   6.770 -11.195  1.00  0.00     0.040 A 
HETATM   16  C15 CAT     1      28.832   8.129 -10.874  1.00  0.00     0.013 A 
BRANCH  13  17
HETATM   17  O5  CAT     1      25.127   6.288 -10.985  1.00  0.00    -0.358 OA
HETATM   18  H13 CAT     1      25.325   5.335 -10.888  1.00  0.00     0.217 HD
ENDBRANCH  13  17
BRANCH  14  19
HETATM   19  O4  CAT     1      27.348   4.836 -11.534  1.00  0.00    -0.358 OA
HETATM   20  H12 CAT     1      27.882   4.644 -12.324  1.00  0.00     0.217 HD
ENDBRANCH  14  19
ENDBRANCH   3  11
BRANCH   2  21
HETATM   21  O6  CAT     1      28.734   9.851  -7.991  1.00  0.00    -0.392 OA
HETATM   22  H14 CAT     1      28.590  10.016  -7.041  1.00  0.00     0.210 HD
ENDBRANCH   2  21
BRANCH   9  23
HETATM   23  O2  CAT     1      27.337  14.911  -7.986  1.00  0.00    -0.360 OA
HETATM   24  H7  CAT     1      26.602  15.277  -7.468  1.00  0.00     0.217 HD
ENDBRANCH   9  23
BRANCH   7  25
HETATM   25  O3  CAT     1      24.835  15.199 -11.999  1.00  0.00    -0.361 OA
HETATM   26  H8  CAT     1      25.089  16.134 -11.923  1.00  0.00     0.217 HD
ENDBRANCH   7  25
TORSDOF 6
ENDMDL
