MODEL 1
REMARK VINA RESULT:    -8.565      0.000      0.000
REMARK INTER + INTRA:         -14.746
REMARK INTER:                 -13.071
REMARK INTRA:                  -1.675
REMARK UNBOUND:                -1.675
REMARK  10 active torsions:
REMARK  status: ('A' for Active; 'I' for Inactive)
REMARK    1  A    between atoms: O1_2  and  C2_3 
REMARK    2  A    between atoms: C3_4  and  O6_27 
REMARK    3  A    between atoms: C6_7  and  C8_9 
REMARK    4  A    between atoms: C9_10  and  C10_11 
REMARK    5  A    between atoms: C10_11  and  C11_13 
REMARK    6  A    between atoms: C11_13  and  C12_14 
REMARK    7  A    between atoms: C12_14  and  C13_16 
REMARK    8  A    between atoms: C14_17  and  C15_18 
REMARK    9  A    between atoms: C17_20  and  O5_25 
REMARK   10  A    between atoms: C18_21  and  O4_24 
ROOT
HETATM    1  C11 CUR     1      55.430  16.746   8.960  1.00  0.00     0.165 C 
ENDROOT
BRANCH   1   2
HETATM    2  C10 CUR     1      54.658  17.122   7.720  1.00  0.00     0.156 C 
HETATM    3  O2  CUR     1      55.072  17.935   6.895  1.00  0.00    -0.293 OA
BRANCH   2   4
HETATM    4  C9  CUR     1      53.317  16.517   7.477  1.00  0.00     0.051 C 
HETATM    5  C8  CUR     1      52.867  15.397   8.062  1.00  0.00     0.015 C 
BRANCH   5   6
HETATM    6  C6  CUR     1      51.530  14.840   7.802  1.00  0.00    -0.033 A 
HETATM    7  C5  CUR     1      50.792  15.188   6.662  1.00  0.00     0.014 A 
HETATM    8  C4  CUR     1      49.540  14.619   6.429  1.00  0.00     0.040 A 
HETATM    9  C3  CUR     1      49.025  13.691   7.333  1.00  0.00     0.099 A 
HETATM   10  C2  CUR     1      49.749  13.314   8.472  1.00  0.00     0.102 A 
HETATM   11  C7  CUR     1      51.005  13.891   8.694  1.00  0.00     0.051 A 
BRANCH   9  12
HETATM   12  O6  CUR     1      47.796  13.131   7.106  1.00  0.00    -0.358 OA
HETATM   13  H20 CUR     1      47.843  12.562   6.323  1.00  0.00     0.217 HD
ENDBRANCH   9  12
BRANCH  10  14
HETATM   14  O1  CUR     1      49.152  12.390   9.289  1.00  0.00    -0.353 OA
HETATM   15  C1  CUR     1      49.675  11.071   9.285  1.00  0.00     0.210 C 
ENDBRANCH  10  14
ENDBRANCH   5   6
ENDBRANCH   2   4
ENDBRANCH   1   2
BRANCH   1  16
HETATM   16  C12 CUR     1      55.288  17.698  10.122  1.00  0.00     0.156 C 
HETATM   17  O3  CUR     1      56.254  18.339  10.535  1.00  0.00    -0.293 OA
BRANCH  16  18
HETATM   18  C13 CUR     1      53.964  17.775  10.805  1.00  0.00     0.051 C 
HETATM   19  C14 CUR     1      53.438  16.690  11.392  1.00  0.00     0.015 C 
BRANCH  19  20
HETATM   20  C15 CUR     1      52.147  16.703  12.090  1.00  0.00    -0.033 A 
HETATM   21  C16 CUR     1      52.026  16.276  13.425  1.00  0.00     0.051 A 
HETATM   22  C17 CUR     1      50.782  16.278  14.058  1.00  0.00     0.102 A 
HETATM   23  C18 CUR     1      49.660  16.705  13.337  1.00  0.00     0.099 A 
HETATM   24  C19 CUR     1      49.757  17.114  12.014  1.00  0.00     0.040 A 
HETATM   25  C20 CUR     1      51.003  17.105  11.388  1.00  0.00     0.014 A 
BRANCH  22  26
HETATM   26  O5  CUR     1      50.528  15.895  15.350  1.00  0.00    -0.353 OA
HETATM   27  C21 CUR     1      50.917  16.805  16.373  1.00  0.00     0.210 C 
ENDBRANCH  22  26
BRANCH  23  28
HETATM   28  O4  CUR     1      48.427  16.721  13.930  1.00  0.00    -0.358 OA
HETATM   29  H16 CUR     1      48.400  15.911  14.475  1.00  0.00     0.217 HD
ENDBRANCH  23  28
ENDBRANCH  19  20
ENDBRANCH  16  18
ENDBRANCH   1  16
TORSDOF 10
ENDMDL
