MODEL 1
REMARK VINA RESULT:    -5.636      0.000      0.000
REMARK INTER + INTRA:          -6.678
REMARK INTER:                  -6.624
REMARK INTRA:                  -0.054
REMARK UNBOUND:                -0.054
REMARK  5 active torsions:
REMARK  status: ('A' for Active; 'I' for Inactive)
REMARK    1  A    between atoms: C2_2  and  C7_10 
REMARK    2  A    between atoms: C4_4  and  O3_9 
REMARK    3  A    between atoms: C5_5  and  O2_8 
REMARK    4  A    between atoms: C6_6  and  O1_7 
REMARK    5  A    between atoms: C7_10  and  O5_12 
ROOT
HETATM    1  C1  GAL     1      33.116  54.360  45.499  1.00  0.00     0.057 A 
HETATM    2  C2  GAL     1      32.237  55.288  46.084  1.00  0.00     0.043 A 
HETATM    3  C3  GAL     1      32.205  56.616  45.631  1.00  0.00     0.057 A 
HETATM    4  C4  GAL     1      33.050  57.003  44.601  1.00  0.00     0.102 A 
HETATM    5  C5  GAL     1      33.920  56.089  44.021  1.00  0.00     0.132 A 
HETATM    6  C6  GAL     1      33.953  54.772  44.467  1.00  0.00     0.102 A 
ENDROOT
BRANCH   2   7
HETATM    7  C7  GAL     1      31.321  54.906  47.185  1.00  0.00     0.176 C 
HETATM    8  O4  GAL     1      30.919  55.636  48.071  1.00  0.00    -0.646 OA
BRANCH   7   9
HETATM    9  O5  GAL     1      30.949  53.615  47.126  1.00  0.00    -0.773 OA
HETATM   10  H6  GAL     1      30.012  53.661  46.840  1.00  0.00     0.167 HD
ENDBRANCH   7   9
ENDBRANCH   2   7
BRANCH   6  11
HETATM   11  O1  GAL     1      34.829  53.918  43.858  1.00  0.00    -0.358 OA
HETATM   12  H3  GAL     1      34.320  53.274  43.335  1.00  0.00     0.217 HD
ENDBRANCH   6  11
BRANCH   4  13
HETATM   13  O3  GAL     1      33.023  58.294  44.158  1.00  0.00    -0.358 OA
HETATM   14  H5  GAL     1      32.337  58.305  43.460  1.00  0.00     0.217 HD
ENDBRANCH   4  13
BRANCH   5  15
HETATM   15  O2  GAL     1      34.740  56.501  43.007  1.00  0.00    -0.356 OA
HETATM   16  H4  GAL     1      34.858  57.461  43.165  1.00  0.00     0.218 HD
ENDBRANCH   5  15
TORSDOF 5
ENDMDL
