MODEL 1
REMARK VINA RESULT:   -10.243      0.000      0.000
REMARK INTER + INTRA:         -13.697
REMARK INTER:                 -13.238
REMARK INTRA:                  -0.459
REMARK UNBOUND:                -0.459
REMARK  6 active torsions:
REMARK  status: ('A' for Active; 'I' for Inactive)
REMARK    1  A    between atoms: C3_3  and  C4_4 
REMARK    2  A    between atoms: C4_4  and  C5_5 
REMARK    3  A    between atoms: C5_5  and  C6_6 
REMARK    4  A    between atoms: C6_6  and  C8_8 
REMARK    5  A    between atoms: C6_6  and  O2_31 
REMARK    6  A    between atoms: C23_23  and  O1_27 
ROOT
HETATM    1  C8  GIN     1      39.448  16.199   4.624  1.00  0.00     0.024 C 
HETATM    2  C9  GIN     1      40.020  15.248   3.570  1.00  0.00     0.009 C 
HETATM    3  C10 GIN     1      38.966  15.284   2.469  1.00  0.00     0.011 C 
HETATM    4  C11 GIN     1      37.591  15.394   3.193  1.00  0.00    -0.032 C 
HETATM    5  C12 GIN     1      37.955  15.753   4.688  1.00  0.00     0.001 C 
HETATM    6  C13 GIN     1      37.615  14.634   5.667  1.00  0.00     0.006 C 
HETATM    7  C14 GIN     1      36.147  14.209   5.586  1.00  0.00     0.006 C 
HETATM    8  C15 GIN     1      35.554  14.139   4.154  1.00  0.00     0.003 C 
HETATM    9  C16 GIN     1      36.674  14.064   3.053  1.00  0.00    -0.032 C 
HETATM   10  C17 GIN     1      36.012  14.018   1.643  1.00  0.00     0.011 C 
HETATM   11  C18 GIN     1      34.867  13.012   1.493  1.00  0.00     0.007 C 
HETATM   12  C19 GIN     1      33.768  13.257   2.546  1.00  0.00     0.004 C 
HETATM   13  C20 GIN     1      34.328  13.129   4.005  1.00  0.00    -0.035 C 
HETATM   14  C21 GIN     1      33.215  13.549   5.026  1.00  0.00     0.012 C 
HETATM   15  C22 GIN     1      31.794  13.615   4.459  1.00  0.00     0.033 C 
HETATM   16  C23 GIN     1      31.479  12.475   3.497  1.00  0.00     0.126 C 
HETATM   17  C24 GIN     1      32.420  12.483   2.251  1.00  0.00    -0.017 C 
HETATM   18  C25 GIN     1      32.636  11.054   1.708  1.00  0.00     0.018 C 
HETATM   19  C26 GIN     1      31.672  13.263   1.129  1.00  0.00     0.018 C 
HETATM   20  C27 GIN     1      34.739  11.672   4.330  1.00  0.00     0.016 C 
HETATM   21  C28 GIN     1      37.502  12.748   3.215  1.00  0.00     0.016 C 
HETATM   22  C29 GIN     1      36.899  16.662   2.603  1.00  0.00     0.016 C 
ENDROOT
BRANCH   1  23
HETATM   23  C6  GIN     1      40.277  16.301   5.931  1.00  0.00     0.058 C 
HETATM   24  C7  GIN     1      39.378  16.133   7.165  1.00  0.00     0.046 C 
BRANCH  23  25
HETATM   25  C5  GIN     1      41.117  17.607   6.015  1.00  0.00     0.041 C 
BRANCH  25  26
HETATM   26  C4  GIN     1      40.454  18.938   5.638  1.00  0.00     0.030 C 
BRANCH  26  27
HETATM   27  C3  GIN     1      39.563  19.532   6.689  1.00  0.00    -0.025 C 
HETATM   28  C2  GIN     1      38.215  19.551   6.697  1.00  0.00    -0.091 C 
HETATM   29  C1  GIN     1      37.460  20.168   7.845  1.00  0.00     0.042 C 
HETATM   30  C30 GIN     1      37.341  18.993   5.608  1.00  0.00     0.042 C 
ENDBRANCH  26  27
ENDBRANCH  25  26
ENDBRANCH  23  25
BRANCH  23  31
HETATM   31  O2  GIN     1      41.240  15.235   5.961  1.00  0.00    -0.390 OA
HETATM   32  H49 GIN     1      42.022  15.523   5.460  1.00  0.00     0.210 HD
ENDBRANCH  23  31
ENDBRANCH   1  23
BRANCH  16  33
HETATM   33  O1  GIN     1      31.540  11.239   4.205  1.00  0.00    -0.395 OA
HETATM   34  H39 GIN     1      32.145  10.650   3.723  1.00  0.00     0.210 HD
ENDBRANCH  16  33
TORSDOF 6
ENDMDL
