MODEL 1
REMARK VINA RESULT:   -10.461      0.000      0.000
REMARK INTER + INTRA:         -19.865
REMARK INTER:                 -17.189
REMARK INTRA:                  -2.677
REMARK UNBOUND:                -2.677
REMARK  15 active torsions:
REMARK  status: ('A' for Active; 'I' for Inactive)
REMARK    1  A    between atoms: C5_5  and  C42_56 
REMARK    2  A    between atoms: C15_16  and  O2_29 
REMARK    3  A    between atoms: O2_29  and  C28_30 
REMARK    4  A    between atoms: C29_31  and  O8_41 
REMARK    5  A    between atoms: C30_32  and  O7_40 
REMARK    6  A    between atoms: C31_33  and  O6_39 
REMARK    7  A    between atoms: C32_34  and  C33_36 
REMARK    8  A    between atoms: C33_36  and  O5_38 
REMARK    9  A    between atoms: O8_41  and  C34_42 
REMARK   10  A    between atoms: C35_43  and  O14_53 
REMARK   11  A    between atoms: C36_44  and  O13_52 
REMARK   12  A    between atoms: C37_45  and  O12_51 
REMARK   13  A    between atoms: C38_46  and  C39_48 
REMARK   14  A    between atoms: C39_48  and  O11_50 
REMARK   15  A    between atoms: C42_56  and  O16_58 
ROOT
HETATM    1  C1  GRA     1      33.439  44.673  49.478  1.00  0.00     0.016 C 
HETATM    2  C2  GRA     1      34.464  44.265  50.577  1.00  0.00    -0.036 C 
HETATM    3  C3  GRA     1      34.867  45.542  51.359  1.00  0.00     0.011 C 
HETATM    4  C4  GRA     1      35.674  46.552  50.545  1.00  0.00     0.021 C 
HETATM    5  C5  GRA     1      36.925  45.945  49.885  1.00  0.00     0.042 C 
HETATM    6  C6  GRA     1      36.530  44.667  49.104  1.00  0.00     0.030 C 
HETATM    7  C7  GRA     1      35.713  43.602  49.893  1.00  0.00     0.025 C 
HETATM    8  C8  GRA     1      36.526  42.611  50.756  1.00  0.00    -0.062 C 
HETATM    9  C9  GRA     1      37.819  42.327  50.495  1.00  0.00     0.054 C 
HETATM   10  C10 GRA     1      38.577  41.212  51.128  1.00  0.00     0.155 C 
HETATM   11  O1  GRA     1      39.782  41.150  50.888  1.00  0.00    -0.293 OA
HETATM   12  C11 GRA     1      37.841  40.236  52.059  1.00  0.00     0.077 C 
HETATM   13  C12 GRA     1      38.523  38.815  52.266  1.00  0.00    -0.028 C 
HETATM   14  C13 GRA     1      39.945  39.000  52.877  1.00  0.00     0.013 C 
HETATM   15  C14 GRA     1      40.587  37.715  53.387  1.00  0.00     0.034 C 
HETATM   16  C15 GRA     1      39.729  36.983  54.416  1.00  0.00     0.133 C 
HETATM   17  C16 GRA     1      38.288  36.692  53.887  1.00  0.00    -0.017 C 
HETATM   18  C17 GRA     1      37.670  38.038  53.344  1.00  0.00     0.005 C 
HETATM   19  C18 GRA     1      36.188  37.946  52.933  1.00  0.00     0.007 C 
HETATM   20  C19 GRA     1      35.568  39.338  52.763  1.00  0.00     0.011 C 
HETATM   21  C20 GRA     1      36.297  40.243  51.734  1.00  0.00    -0.021 C 
HETATM   22  C21 GRA     1      35.770  41.776  51.803  1.00  0.00    -0.012 C 
HETATM   23  C22 GRA     1      34.244  41.871  51.532  1.00  0.00     0.015 C 
HETATM   24  C23 GRA     1      33.708  43.302  51.536  1.00  0.00     0.011 C 
HETATM   25  C24 GRA     1      36.046  42.415  53.200  1.00  0.00     0.021 C 
HETATM   26  C25 GRA     1      35.989  39.651  50.323  1.00  0.00     0.017 C 
HETATM   27  C26 GRA     1      37.453  36.188  55.098  1.00  0.00     0.018 C 
HETATM   28  C27 GRA     1      38.282  35.549  52.853  1.00  0.00     0.018 C 
HETATM   29  C40 GRA     1      38.675  38.070  50.920  1.00  0.00     0.016 C 
HETATM   30  C41 GRA     1      38.022  45.675  50.926  1.00  0.00     0.026 C 
ENDROOT
BRANCH  16  31
HETATM   31  O2  GRA     1      40.385  35.754  54.773  1.00  0.00    -0.352 OA
BRANCH  31  32
HETATM   32  C28 GRA     1      41.228  35.880  55.935  1.00  0.00     0.293 C 
HETATM   33  C29 GRA     1      42.386  34.867  55.859  1.00  0.00     0.211 C 
HETATM   34  C30 GRA     1      41.807  33.448  55.721  1.00  0.00     0.183 C 
HETATM   35  C31 GRA     1      40.481  33.271  56.483  1.00  0.00     0.189 C 
HETATM   36  C32 GRA     1      40.272  34.347  57.560  1.00  0.00     0.253 C 
HETATM   37  O3  GRA     1      40.401  35.692  57.082  1.00  0.00    -0.340 OA
BRANCH  33  38
HETATM   38  O8  GRA     1      43.239  35.105  54.720  1.00  0.00    -0.346 OA
BRANCH  38  39
HETATM   39  C34 GRA     1      44.633  35.129  55.063  1.00  0.00     0.293 C 
HETATM   40  C35 GRA     1      44.929  36.543  55.581  1.00  0.00     0.204 C 
HETATM   41  C36 GRA     1      46.431  36.696  55.833  1.00  0.00     0.183 C 
HETATM   42  C37 GRA     1      47.114  35.369  56.201  1.00  0.00     0.189 C 
HETATM   43  C38 GRA     1      46.133  34.342  56.788  1.00  0.00     0.253 C 
HETATM   44  O9  GRA     1      44.917  34.149  56.051  1.00  0.00    -0.340 OA
BRANCH  40  45
HETATM   45  O14 GRA     1      44.506  37.557  54.654  1.00  0.00    -0.388 OA
HETATM   46  H55 GRA     1      44.822  38.397  55.043  1.00  0.00     0.210 HD
ENDBRANCH  40  45
BRANCH  41  47
HETATM   47  O13 GRA     1      46.644  37.662  56.869  1.00  0.00    -0.390 OA
HETATM   48  H54 GRA     1      46.804  38.513  56.414  1.00  0.00     0.210 HD
ENDBRANCH  41  47
BRANCH  42  49
HETATM   49  O12 GRA     1      47.692  34.803  55.009  1.00  0.00    -0.390 OA
HETATM   50  H53 GRA     1      47.137  34.043  54.754  1.00  0.00     0.210 HD
ENDBRANCH  42  49
BRANCH  43  51
HETATM   51  C39 GRA     1      45.925  34.666  58.269  1.00  0.00     0.172 C 
HETATM   52  O10 GRA     1      46.730  35.235  58.990  1.00  0.00    -0.648 OA
BRANCH  51  53
HETATM   53  O11 GRA     1      44.725  34.293  58.752  1.00  0.00    -0.774 OA
HETATM   54  H52 GRA     1      44.397  35.068  59.260  1.00  0.00     0.167 HD
ENDBRANCH  51  53
ENDBRANCH  43  51
ENDBRANCH  38  39
ENDBRANCH  33  38
BRANCH  34  55
HETATM   55  O7  GRA     1      42.781  32.514  56.219  1.00  0.00    -0.390 OA
HETATM   56  H46 GRA     1      42.652  32.461  57.185  1.00  0.00     0.210 HD
ENDBRANCH  34  55
BRANCH  35  57
HETATM   57  O6  GRA     1      39.391  33.313  55.546  1.00  0.00    -0.390 OA
HETATM   58  H45 GRA     1      38.979  34.199  55.636  1.00  0.00     0.210 HD
ENDBRANCH  35  57
BRANCH  36  59
HETATM   59  C33 GRA     1      41.182  34.090  58.761  1.00  0.00     0.172 C 
HETATM   60  O4  GRA     1      41.452  33.006  59.254  1.00  0.00    -0.648 OA
BRANCH  59  61
HETATM   61  O5  GRA     1      41.729  35.213  59.268  1.00  0.00    -0.774 OA
HETATM   62  H44 GRA     1      41.399  35.240  60.193  1.00  0.00     0.167 HD
ENDBRANCH  59  61
ENDBRANCH  36  59
ENDBRANCH  31  32
ENDBRANCH  16  31
BRANCH   5  63
HETATM   63  C42 GRA     1      37.507  46.948  48.885  1.00  0.00     0.148 C 
HETATM   64  O15 GRA     1      38.591  46.877  48.329  1.00  0.00    -0.649 OA
BRANCH  63  65
HETATM   65  O16 GRA     1      36.715  48.015  48.668  1.00  0.00    -0.776 OA
HETATM   66  H62 GRA     1      37.204  48.541  48.001  1.00  0.00     0.167 HD
ENDBRANCH  63  65
ENDBRANCH   5  63
TORSDOF 15
ENDMDL
