MODEL 1
REMARK VINA RESULT:   -10.146      0.000      0.000
REMARK INTER + INTRA:         -13.434
REMARK INTER:                 -13.705
REMARK INTRA:                   0.272
REMARK UNBOUND:                 0.272
REMARK  10 active torsions:
REMARK  status: ('A' for Active; 'I' for Inactive)
REMARK    1  A    between atoms: C5_5  and  O2_8 
REMARK    2  A    between atoms: C6_6  and  O1_7 
REMARK    3  A    between atoms: C10_14  and  O11_30 
REMARK    4  A    between atoms: C11_15  and  C14_19 
REMARK    5  A    between atoms: C12_16  and  O5_18 
REMARK    6  A    between atoms: C15_20  and  O10_29 
REMARK    7  A    between atoms: C16_21  and  O9_28 
REMARK    8  A    between atoms: C17_22  and  O8_27 
REMARK    9  A    between atoms: C18_23  and  C19_25 
REMARK   10  A    between atoms: C19_25  and  O7_26 
ROOT
HETATM    1  C1  MAN     1      28.607   5.254 -10.341  1.00  0.00     0.057 A 
HETATM    2  C2  MAN     1      28.984   6.599 -10.274  1.00  0.00     0.052 A 
HETATM    3  C3  MAN     1      30.300   6.962  -9.979  1.00  0.00     0.093 A 
HETATM    4  C4  MAN     1      31.254   5.972  -9.734  1.00  0.00     0.077 A 
HETATM    5  C5  MAN     1      30.875   4.637  -9.785  1.00  0.00     0.101 A 
HETATM    6  C6  MAN     1      29.568   4.281 -10.112  1.00  0.00     0.099 A 
HETATM    7  O3  MAN     1      30.733   8.262  -9.904  1.00  0.00    -0.309 OA
HETATM    8  C7  MAN     1      29.824   9.267 -10.136  1.00  0.00     0.095 A 
HETATM    9  C8  MAN     1      28.483   9.055 -10.440  1.00  0.00     0.083 A 
HETATM   10  C9  MAN     1      28.006   7.666 -10.521  1.00  0.00     0.200 A 
HETATM   11  O4  MAN     1      26.833   7.425 -10.782  1.00  0.00    -0.286 OA
HETATM   12  C10 MAN     1      27.623  10.144 -10.668  1.00  0.00     0.094 A 
HETATM   13  C11 MAN     1      28.094  11.464 -10.562  1.00  0.00     0.041 A 
HETATM   14  C12 MAN     1      29.462  11.646 -10.285  1.00  0.00     0.080 A 
HETATM   15  C13 MAN     1      30.321  10.568 -10.066  1.00  0.00     0.075 A 
ENDROOT
BRANCH  13  16
HETATM   16  C14 MAN     1      27.216  12.690 -10.765  1.00  0.00     0.192 C 
HETATM   17  C15 MAN     1      25.767  12.301 -11.175  1.00  0.00     0.183 C 
HETATM   18  C16 MAN     1      24.761  12.571 -10.048  1.00  0.00     0.181 C 
HETATM   19  C17 MAN     1      24.869  14.021  -9.533  1.00  0.00     0.180 C 
HETATM   20  C18 MAN     1      26.285  14.601  -9.724  1.00  0.00     0.177 C 
HETATM   21  O6  MAN     1      27.262  13.567  -9.624  1.00  0.00    -0.368 OA
BRANCH  17  22
HETATM   22  O10 MAN     1      25.363  13.086 -12.318  1.00  0.00    -0.390 OA
HETATM   23  H17 MAN     1      26.072  12.982 -12.983  1.00  0.00     0.210 HD
ENDBRANCH  17  22
BRANCH  18  24
HETATM   24  O9  MAN     1      24.928  11.637  -8.979  1.00  0.00    -0.390 OA
HETATM   25  H16 MAN     1      24.406  11.956  -8.211  1.00  0.00     0.210 HD
ENDBRANCH  18  24
BRANCH  19  26
HETATM   26  O8  MAN     1      23.936  14.884 -10.204  1.00  0.00    -0.390 OA
HETATM   27  H15 MAN     1      23.091  14.814  -9.714  1.00  0.00     0.210 HD
ENDBRANCH  19  26
BRANCH  20  28
HETATM   28  C19 MAN     1      26.568  15.692  -8.682  1.00  0.00     0.198 C 
BRANCH  28  29
HETATM   29  O7  MAN     1      27.954  15.778  -8.362  1.00  0.00    -0.398 OA
HETATM   30  H14 MAN     1      28.238  14.903  -8.028  1.00  0.00     0.209 HD
ENDBRANCH  28  29
ENDBRANCH  20  28
ENDBRANCH  13  16
BRANCH  12  31
HETATM   31  O11 MAN     1      26.314   9.941 -11.033  1.00  0.00    -0.359 OA
HETATM   32  H18 MAN     1      25.765   9.901 -10.213  1.00  0.00     0.217 HD
ENDBRANCH  12  31
BRANCH  14  33
HETATM   33  O5  MAN     1      29.962  12.920 -10.256  1.00  0.00    -0.360 OA
HETATM   34  H6  MAN     1      30.165  13.164  -9.335  1.00  0.00     0.217 HD
ENDBRANCH  14  33
BRANCH   6  35
HETATM   35  O1  MAN     1      29.219   2.969 -10.235  1.00  0.00    -0.358 OA
HETATM   36  H3  MAN     1      29.869   2.458  -9.718  1.00  0.00     0.217 HD
ENDBRANCH   6  35
BRANCH   5  37
HETATM   37  O2  MAN     1      31.799   3.681  -9.482  1.00  0.00    -0.358 OA
HETATM   38  H4  MAN     1      32.666   4.128  -9.463  1.00  0.00     0.217 HD
ENDBRANCH   5  37
TORSDOF 10
ENDMDL
