MODEL 1
REMARK VINA RESULT:   -10.302      0.000      0.000
REMARK INTER + INTRA:         -18.245
REMARK INTER:                 -16.324
REMARK INTRA:                  -1.921
REMARK UNBOUND:                -1.921
REMARK  14 active torsions:
REMARK  status: ('A' for Active; 'I' for Inactive)
REMARK    1  A    between atoms: C3_3  and  O14_41 
REMARK    2  A    between atoms: C4_4  and  O13_40 
REMARK    3  A    between atoms: C5_5  and  O12_39 
REMARK    4  A    between atoms: C6_6  and  O2_8 
REMARK    5  A    between atoms: O2_8  and  C7_9 
REMARK    6  A    between atoms: C8_10  and  O11_38 
REMARK    7  A    between atoms: C9_11  and  O10_37 
REMARK    8  A    between atoms: C10_12  and  C27_35 
REMARK    9  A    between atoms: C11_14  and  O4_15 
REMARK   10  A    between atoms: O4_15  and  C12_16 
REMARK   11  A    between atoms: C14_18  and  O8_34 
REMARK   12  A    between atoms: C18_23  and  C21_27 
REMARK   13  A    between atoms: C24_30  and  O7_33 
REMARK   14  A    between atoms: C27_35  and  O9_36 
ROOT
HETATM    1  C7  NAR     1      20.830  48.642  47.395  1.00  0.00     0.211 C 
HETATM    2  C8  NAR     1      19.810  48.628  48.548  1.00  0.00     0.183 C 
HETATM    3  C9  NAR     1      19.085  47.273  48.669  1.00  0.00     0.180 C 
HETATM    4  C10 NAR     1      19.078  46.529  47.320  1.00  0.00     0.179 C 
HETATM    5  O3  NAR     1      18.939  47.466  46.256  1.00  0.00    -0.348 OA
HETATM    6  C11 NAR     1      20.136  48.241  46.056  1.00  0.00     0.298 C 
ENDROOT
BRANCH   6   7
HETATM    7  O4  NAR     1      19.790  49.463  45.386  1.00  0.00    -0.318 OA
BRANCH   7   8
HETATM    8  C12 NAR     1      19.121  49.364  44.199  1.00  0.00     0.077 A 
HETATM    9  C13 NAR     1      17.742  49.494  44.028  1.00  0.00     0.074 A 
HETATM   10  C14 NAR     1      17.187  49.389  42.752  1.00  0.00     0.085 A 
HETATM   11  C15 NAR     1      18.003  49.154  41.643  1.00  0.00     0.076 A 
HETATM   12  C16 NAR     1      17.456  49.090  40.276  1.00  0.00     0.167 C 
HETATM   13  C19 NAR     1      19.380  49.016  41.813  1.00  0.00     0.089 A 
HETATM   14  O5  NAR     1      16.244  49.199  40.096  1.00  0.00    -0.292 OA
HETATM   15  C17 NAR     1      18.443  48.961  39.153  1.00  0.00     0.121 C 
HETATM   16  C18 NAR     1      19.626  48.144  39.655  1.00  0.00     0.169 C 
HETATM   17  O6  NAR     1      20.250  48.783  40.781  1.00  0.00    -0.340 OA
HETATM   18  C20 NAR     1      19.938  49.143  43.084  1.00  0.00     0.074 A 
BRANCH  10  19
HETATM   19  O8  NAR     1      15.829  49.540  42.658  1.00  0.00    -0.360 OA
HETATM   20  H24 NAR     1      15.463  48.751  42.197  1.00  0.00     0.217 HD
ENDBRANCH  10  19
BRANCH  16  21
HETATM   21  C21 NAR     1      20.656  47.970  38.553  1.00  0.00    -0.028 A 
HETATM   22  C22 NAR     1      20.275  47.651  37.238  1.00  0.00     0.012 A 
HETATM   23  C23 NAR     1      21.235  47.470  36.240  1.00  0.00     0.037 A 
HETATM   24  C24 NAR     1      22.583  47.605  36.555  1.00  0.00     0.065 A 
HETATM   25  C25 NAR     1      22.983  47.913  37.848  1.00  0.00     0.037 A 
HETATM   26  C26 NAR     1      22.023  48.094  38.847  1.00  0.00     0.012 A 
BRANCH  24  27
HETATM   27  O7  NAR     1      23.554  47.437  35.613  1.00  0.00    -0.361 OA
HETATM   28  H23 NAR     1      23.833  48.313  35.297  1.00  0.00     0.217 HD
ENDBRANCH  24  27
ENDBRANCH  16  21
ENDBRANCH   7   8
ENDBRANCH   6   7
BRANCH   1  29
HETATM   29  O2  NAR     1      21.883  47.716  47.722  1.00  0.00    -0.346 OA
BRANCH  29  30
HETATM   30  C6  NAR     1      22.529  47.183  46.562  1.00  0.00     0.292 C 
HETATM   31  C5  NAR     1      24.039  47.474  46.701  1.00  0.00     0.204 C 
HETATM   32  C4  NAR     1      24.868  46.553  45.794  1.00  0.00     0.183 C 
HETATM   33  C3  NAR     1      24.022  46.007  44.642  1.00  0.00     0.178 C 
HETATM   34  C2  NAR     1      22.811  45.239  45.211  1.00  0.00     0.152 C 
HETATM   35  C1  NAR     1      21.670  45.154  44.202  1.00  0.00     0.042 C 
HETATM   36  O1  NAR     1      22.309  45.786  46.442  1.00  0.00    -0.351 OA
BRANCH  31  37
HETATM   37  O12 NAR     1      24.313  48.850  46.368  1.00  0.00    -0.388 OA
HETATM   38  H30 NAR     1      25.179  48.844  45.912  1.00  0.00     0.210 HD
ENDBRANCH  31  37
BRANCH  32  39
HETATM   39  O13 NAR     1      26.008  47.241  45.254  1.00  0.00    -0.390 OA
HETATM   40  H31 NAR     1      26.778  46.887  45.751  1.00  0.00     0.210 HD
ENDBRANCH  32  39
BRANCH  33  41
HETATM   41  O14 NAR     1      24.813  45.152  43.813  1.00  0.00    -0.390 OA
HETATM   42  H32 NAR     1      24.531  45.353  42.896  1.00  0.00     0.210 HD
ENDBRANCH  33  41
ENDBRANCH  29  30
ENDBRANCH   1  29
BRANCH   2  43
HETATM   43  O11 NAR     1      18.856  49.689  48.372  1.00  0.00    -0.390 OA
HETATM   44  H29 NAR     1      19.257  50.516  48.702  1.00  0.00     0.210 HD
ENDBRANCH   2  43
BRANCH   4  45
HETATM   45  C27 NAR     1      17.926  45.519  47.263  1.00  0.00     0.198 C 
BRANCH  45  46
HETATM   46  O9  NAR     1      18.285  44.316  47.939  1.00  0.00    -0.398 OA
HETATM   47  H27 NAR     1      17.534  43.702  47.829  1.00  0.00     0.209 HD
ENDBRANCH  45  46
ENDBRANCH   4  45
BRANCH   3  48
HETATM   48  O10 NAR     1      19.700  46.452  49.669  1.00  0.00    -0.390 OA
HETATM   49  H28 NAR     1      20.637  46.358  49.396  1.00  0.00     0.210 HD
ENDBRANCH   3  48
TORSDOF 14
ENDMDL
