MODEL 1
REMARK VINA RESULT:    -7.492      0.000      0.000
REMARK INTER + INTRA:          -9.353
REMARK INTER:                  -9.025
REMARK INTRA:                  -0.328
REMARK UNBOUND:                -0.328
REMARK  5 active torsions:
REMARK  status: ('A' for Active; 'I' for Inactive)
REMARK    1  A    between atoms: C3_3  and  O3_17 
REMARK    2  A    between atoms: C6_6  and  C7_7 
REMARK    3  A    between atoms: C8_8  and  C9_9 
REMARK    4  A    between atoms: C11_11  and  O2_16 
REMARK    5  A    between atoms: C13_13  and  O1_15 
ROOT
HETATM    1  C9  RES     1      50.082  13.497   9.676  1.00  0.00    -0.031 A 
HETATM    2  C10 RES     1      49.704  13.739   8.349  1.00  0.00     0.048 A 
HETATM    3  C11 RES     1      48.993  12.776   7.636  1.00  0.00     0.069 A 
HETATM    4  C12 RES     1      48.639  11.569   8.226  1.00  0.00     0.073 A 
HETATM    5  C13 RES     1      49.000  11.336   9.547  1.00  0.00     0.069 A 
HETATM    6  C14 RES     1      49.711  12.287  10.278  1.00  0.00     0.048 A 
ENDROOT
BRANCH   1   7
HETATM    7  C8  RES     1      50.805  14.547  10.408  1.00  0.00     0.012 C 
HETATM    8  C7  RES     1      51.402  14.353  11.596  1.00  0.00     0.012 C 
BRANCH   8   9
HETATM    9  C6  RES     1      52.127  15.402  12.327  1.00  0.00    -0.036 A 
HETATM   10  C1  RES     1      51.722  15.846  13.595  1.00  0.00     0.014 A 
HETATM   11  C2  RES     1      52.418  16.867  14.248  1.00  0.00     0.037 A 
HETATM   12  C3  RES     1      53.516  17.453  13.628  1.00  0.00     0.065 A 
HETATM   13  C4  RES     1      53.924  17.037  12.367  1.00  0.00     0.037 A 
HETATM   14  C5  RES     1      53.227  16.017  11.714  1.00  0.00     0.014 A 
BRANCH  12  15
HETATM   15  O3  RES     1      54.224  18.451  14.228  1.00  0.00    -0.361 OA
HETATM   16  H12 RES     1      55.164  18.203  14.236  1.00  0.00     0.217 HD
ENDBRANCH  12  15
ENDBRANCH   8   9
ENDBRANCH   1   7
BRANCH   3  17
HETATM   17  O2  RES     1      48.659  13.061   6.345  1.00  0.00    -0.361 OA
HETATM   18  H11 RES     1      47.965  12.441   6.063  1.00  0.00     0.217 HD
ENDBRANCH   3  17
BRANCH   5  19
HETATM   19  O1  RES     1      48.626  10.147  10.104  1.00  0.00    -0.361 OA
HETATM   20  H10 RES     1      49.410   9.725  10.492  1.00  0.00     0.217 HD
ENDBRANCH   5  19
TORSDOF 5
ENDMDL
