MODEL 1
REMARK VINA RESULT:    -8.238      0.000      0.000
REMARK INTER + INTRA:         -10.155
REMARK INTER:                  -9.923
REMARK INTRA:                  -0.232
REMARK UNBOUND:                -0.232
REMARK  5 active torsions:
REMARK  status: ('A' for Active; 'I' for Inactive)
REMARK    1  A    between atoms: O1_2  and  C2_3 
REMARK    2  A    between atoms: C4_5  and  O6_22 
REMARK    3  A    between atoms: C8_10  and  C11_15 
REMARK    4  A    between atoms: C9_11  and  O4_14 
REMARK    5  A    between atoms: C14_18  and  O5_21 
ROOT
HETATM    1  C2  RHA     1      54.503  16.768  10.732  1.00  0.00     0.073 A 
HETATM    2  C3  RHA     1      54.233  16.894  12.096  1.00  0.00     0.074 A 
HETATM    3  C4  RHA     1      53.116  16.262  12.645  1.00  0.00     0.085 A 
HETATM    4  C5  RHA     1      52.267  15.504  11.837  1.00  0.00     0.084 A 
HETATM    5  C6  RHA     1      52.533  15.375  10.480  1.00  0.00     0.096 A 
HETATM    6  C7  RHA     1      53.648  16.005   9.928  1.00  0.00     0.075 A 
HETATM    7  O2  RHA     1      51.744  14.643   9.629  1.00  0.00    -0.306 OA
HETATM    8  C8  RHA     1      50.615  14.010  10.137  1.00  0.00     0.123 A 
HETATM    9  C9  RHA     1      50.251  14.051  11.432  1.00  0.00     0.152 A 
HETATM   10  C10 RHA     1      51.088  14.826  12.378  1.00  0.00     0.223 A 
HETATM   11  O3  RHA     1      50.792  14.886  13.569  1.00  0.00    -0.284 OA
ENDROOT
BRANCH   8  12
HETATM   12  C11 RHA     1      49.865  13.261   9.106  1.00  0.00     0.001 A 
HETATM   13  C12 RHA     1      49.223  13.956   8.067  1.00  0.00     0.017 A 
HETATM   14  C13 RHA     1      48.486  13.273   7.094  1.00  0.00     0.037 A 
HETATM   15  C14 RHA     1      48.382  11.889   7.164  1.00  0.00     0.065 A 
HETATM   16  C15 RHA     1      48.999  11.181   8.186  1.00  0.00     0.037 A 
HETATM   17  C16 RHA     1      49.735  11.865   9.157  1.00  0.00     0.017 A 
BRANCH  15  18
HETATM   18  O5  RHA     1      47.672  11.182   6.239  1.00  0.00    -0.361 OA
HETATM   19  H11 RHA     1      48.281  10.593   5.764  1.00  0.00     0.217 HD
ENDBRANCH  15  18
ENDBRANCH   8  12
BRANCH   9  20
HETATM   20  O4  RHA     1      49.148  13.402  11.955  1.00  0.00    -0.355 OA
HETATM   21  H6  RHA     1      48.370  13.834  11.542  1.00  0.00     0.218 HD
ENDBRANCH   9  20
BRANCH   3  22
HETATM   22  O6  RHA     1      52.914  16.429  13.989  1.00  0.00    -0.360 OA
HETATM   23  H12 RHA     1      53.342  15.682  14.464  1.00  0.00     0.217 HD
ENDBRANCH   3  22
BRANCH   1  24
HETATM   24  O1  RHA     1      55.557  17.330  10.067  1.00  0.00    -0.356 OA
HETATM   25  C1  RHA     1      55.439  18.705   9.719  1.00  0.00     0.210 C 
ENDBRANCH   1  24
TORSDOF 5
ENDMDL
