MODEL 1
REMARK VINA RESULT:   -11.514      0.000      0.000
REMARK INTER + INTRA:         -19.846
REMARK INTER:                 -18.918
REMARK INTRA:                  -0.928
REMARK UNBOUND:                -0.928
REMARK  16 active torsions:
REMARK  status: ('A' for Active; 'I' for Inactive)
REMARK    1  A    between atoms: C3_3  and  O16_43 
REMARK    2  A    between atoms: C4_4  and  O15_42 
REMARK    3  A    between atoms: C5_5  and  O14_41 
REMARK    4  A    between atoms: C6_6  and  O2_8 
REMARK    5  A    between atoms: O2_8  and  C7_9 
REMARK    6  A    between atoms: C7_9  and  C8_10 
REMARK    7  A    between atoms: C9_11  and  O13_40 
REMARK    8  A    between atoms: C10_12  and  O12_39 
REMARK    9  A    between atoms: C11_13  and  O11_38 
REMARK   10  A    between atoms: C12_14  and  O4_16 
REMARK   11  A    between atoms: O4_16  and  C13_17 
REMARK   12  A    between atoms: C14_18  and  C22_30 
REMARK   13  A    between atoms: C17_22  and  O8_29 
REMARK   14  A    between atoms: C19_24  and  O7_28 
REMARK   15  A    between atoms: C24_32  and  O10_37 
REMARK   16  A    between atoms: C25_33  and  O9_36 
ROOT
HETATM    1  C8  RUT     1      26.439  13.629 -10.132  1.00  0.00     0.180 C 
HETATM    2  C9  RUT     1      27.878  13.762  -9.611  1.00  0.00     0.180 C 
HETATM    3  C10 RUT     1      28.041  12.908  -8.349  1.00  0.00     0.183 C 
HETATM    4  C11 RUT     1      27.320  11.557  -8.436  1.00  0.00     0.205 C 
HETATM    5  C12 RUT     1      26.842  11.244  -9.870  1.00  0.00     0.298 C 
HETATM    6  O3  RUT     1      26.068  12.289 -10.474  1.00  0.00    -0.348 OA
ENDROOT
BRANCH   5   7
HETATM    7  O4  RUT     1      27.976  10.950 -10.697  1.00  0.00    -0.311 OA
BRANCH   7   8
HETATM    8  C13 RUT     1      28.336   9.614 -10.657  1.00  0.00     0.157 A 
HETATM    9  C14 RUT     1      29.584   9.208 -10.360  1.00  0.00     0.124 A 
HETATM   10  O5  RUT     1      29.996   7.888 -10.308  1.00  0.00    -0.306 OA
HETATM   11  C15 RUT     1      29.063   6.902 -10.500  1.00  0.00     0.096 A 
HETATM   12  C16 RUT     1      29.507   5.584 -10.404  1.00  0.00     0.075 A 
HETATM   13  C20 RUT     1      27.727   7.169 -10.782  1.00  0.00     0.084 A 
HETATM   14  C17 RUT     1      28.605   4.540 -10.591  1.00  0.00     0.071 A 
HETATM   15  C18 RUT     1      27.265   4.792 -10.872  1.00  0.00     0.074 A 
HETATM   16  C19 RUT     1      26.828   6.112 -10.967  1.00  0.00     0.085 A 
HETATM   17  C21 RUT     1      27.302   8.570 -10.886  1.00  0.00     0.223 A 
HETATM   18  O6  RUT     1      26.136   8.846 -11.163  1.00  0.00    -0.284 OA
BRANCH   9  19
HETATM   19  C22 RUT     1      30.676  10.160 -10.091  1.00  0.00     0.004 A 
HETATM   20  C23 RUT     1      31.612   9.879  -9.084  1.00  0.00     0.053 A 
HETATM   21  C24 RUT     1      32.627  10.791  -8.818  1.00  0.00     0.099 A 
HETATM   22  C25 RUT     1      32.713  11.980  -9.538  1.00  0.00     0.098 A 
HETATM   23  C26 RUT     1      31.796  12.274 -10.535  1.00  0.00     0.040 A 
HETATM   24  C27 RUT     1      30.776  11.361 -10.814  1.00  0.00     0.017 A 
BRANCH  21  25
HETATM   25  O10 RUT     1      33.570  10.564  -7.854  1.00  0.00    -0.358 OA
HETATM   26  H24 RUT     1      33.119  10.480  -6.997  1.00  0.00     0.217 HD
ENDBRANCH  21  25
BRANCH  22  27
HETATM   27  O9  RUT     1      33.706  12.875  -9.265  1.00  0.00    -0.358 OA
HETATM   28  H23 RUT     1      34.446  12.608  -9.845  1.00  0.00     0.217 HD
ENDBRANCH  22  27
ENDBRANCH   9  19
BRANCH  14  29
HETATM   29  O8  RUT     1      29.080   3.267 -10.488  1.00  0.00    -0.361 OA
HETATM   30  H19 RUT     1      28.522   2.770  -9.865  1.00  0.00     0.217 HD
ENDBRANCH  14  29
BRANCH  16  31
HETATM   31  O7  RUT     1      25.501   6.299 -11.247  1.00  0.00    -0.360 OA
HETATM   32  H18 RUT     1      25.406   7.135 -11.755  1.00  0.00     0.217 HD
ENDBRANCH  16  31
ENDBRANCH   7   8
ENDBRANCH   5   7
BRANCH   4  33
HETATM   33  O11 RUT     1      26.186  11.590  -7.547  1.00  0.00    -0.388 OA
HETATM   34  H25 RUT     1      25.485  11.058  -7.964  1.00  0.00     0.210 HD
ENDBRANCH   4  33
BRANCH   3  35
HETATM   35  O12 RUT     1      29.446  12.720  -8.105  1.00  0.00    -0.390 OA
HETATM   36  H26 RUT     1      29.892  13.132  -8.870  1.00  0.00     0.210 HD
ENDBRANCH   3  35
BRANCH   1  37
HETATM   37  C7  RUT     1      26.198  14.508 -11.371  1.00  0.00     0.205 C 
BRANCH  37  38
HETATM   38  O2  RUT     1      25.478  15.691 -11.006  1.00  0.00    -0.356 OA
BRANCH  38  39
HETATM   39  C6  RUT     1      24.080  15.561 -11.297  1.00  0.00     0.291 C 
HETATM   40  C5  RUT     1      23.358  14.927 -10.091  1.00  0.00     0.204 C 
HETATM   41  C4  RUT     1      23.260  15.924  -8.938  1.00  0.00     0.183 C 
HETATM   42  C3  RUT     1      22.660  17.252  -9.412  1.00  0.00     0.178 C 
HETATM   43  C2  RUT     1      23.482  17.781 -10.596  1.00  0.00     0.152 C 
HETATM   44  C1  RUT     1      22.890  19.070 -11.158  1.00  0.00     0.042 C 
HETATM   45  O1  RUT     1      23.522  16.827 -11.662  1.00  0.00    -0.351 OA
BRANCH  40  46
HETATM   46  O14 RUT     1      22.031  14.501 -10.449  1.00  0.00    -0.388 OA
HETATM   47  H28 RUT     1      21.485  14.714  -9.664  1.00  0.00     0.210 HD
ENDBRANCH  40  46
BRANCH  41  48
HETATM   48  O15 RUT     1      22.424  15.369  -7.906  1.00  0.00    -0.390 OA
HETATM   49  H29 RUT     1      22.748  15.782  -7.079  1.00  0.00     0.210 HD
ENDBRANCH  41  48
BRANCH  42  50
HETATM   50  O16 RUT     1      22.661  18.150  -8.295  1.00  0.00    -0.390 OA
HETATM   51  H30 RUT     1      23.576  18.462  -8.174  1.00  0.00     0.210 HD
ENDBRANCH  42  50
ENDBRANCH  38  39
ENDBRANCH  37  38
ENDBRANCH   1  37
BRANCH   2  52
HETATM   52  O13 RUT     1      28.246  15.106  -9.262  1.00  0.00    -0.390 OA
HETATM   53  H27 RUT     1      27.525  15.464  -8.705  1.00  0.00     0.210 HD
ENDBRANCH   2  52
TORSDOF 16
ENDMDL
