MODEL 1
REMARK VINA RESULT:    -9.816      0.000      0.000
REMARK INTER + INTRA:         -14.154
REMARK INTER:                 -13.546
REMARK INTRA:                  -0.608
REMARK UNBOUND:                -0.608
REMARK  9 active torsions:
REMARK  status: ('A' for Active; 'I' for Inactive)
REMARK    1  A    between atoms: O1_2  and  C2_3 
REMARK    2  A    between atoms: C3_4  and  O10_35 
REMARK    3  A    between atoms: C6_7  and  C8_9 
REMARK    4  A    between atoms: C9_10  and  C25_33 
REMARK    5  A    between atoms: C13_16  and  C16_19 
REMARK    6  A    between atoms: C17_20  and  O8_32 
REMARK    7  A    between atoms: C20_24  and  O7_31 
REMARK    8  A    between atoms: C22_26  and  O6_30 
REMARK    9  A    between atoms: C25_33  and  O9_34 
ROOT
HETATM    1  C8  SIL     1      48.424  13.238   3.789  1.00  0.00     0.193 C 
HETATM    2  C9  SIL     1      47.273  12.416   4.396  1.00  0.00     0.186 C 
HETATM    3  O2  SIL     1      47.709  11.782   5.622  1.00  0.00    -0.338 OA
HETATM    4  C10 SIL     1      48.395  12.651   6.428  1.00  0.00     0.102 A 
HETATM    5  C11 SIL     1      48.913  13.866   5.980  1.00  0.00     0.103 A 
HETATM    6  O3  SIL     1      48.802  14.299   4.687  1.00  0.00    -0.336 OA
HETATM    7  C12 SIL     1      49.575  14.715   6.868  1.00  0.00     0.049 A 
HETATM    8  C13 SIL     1      49.759  14.343   8.210  1.00  0.00    -0.023 A 
HETATM    9  C14 SIL     1      49.247  13.108   8.642  1.00  0.00     0.013 A 
HETATM   10  C15 SIL     1      48.573  12.265   7.754  1.00  0.00     0.040 A 
ENDROOT
BRANCH   8  11
HETATM   11  C16 SIL     1      50.467  15.259   9.200  1.00  0.00     0.198 C 
HETATM   12  C17 SIL     1      51.935  14.855   9.377  1.00  0.00     0.227 C 
HETATM   13  C18 SIL     1      52.555  15.739  10.442  1.00  0.00     0.196 C 
HETATM   14  O4  SIL     1      53.752  16.031  10.447  1.00  0.00    -0.289 OA
HETATM   15  C19 SIL     1      51.675  16.219  11.519  1.00  0.00     0.079 A 
HETATM   16  C20 SIL     1      52.177  16.951  12.602  1.00  0.00     0.085 A 
HETATM   17  C24 SIL     1      50.318  15.905  11.460  1.00  0.00     0.089 A 
HETATM   18  C21 SIL     1      51.331  17.355  13.631  1.00  0.00     0.074 A 
HETATM   19  C22 SIL     1      49.984  17.015  13.574  1.00  0.00     0.071 A 
HETATM   20  C23 SIL     1      49.472  16.291  12.500  1.00  0.00     0.074 A 
HETATM   21  O5  SIL     1      49.744  15.196  10.443  1.00  0.00    -0.337 OA
BRANCH  12  22
HETATM   22  O8  SIL     1      52.682  15.030   8.170  1.00  0.00    -0.385 OA
HETATM   23  H18 SIL     1      52.892  15.984   8.113  1.00  0.00     0.210 HD
ENDBRANCH  12  22
BRANCH  16  24
HETATM   24  O7  SIL     1      53.496  17.302  12.719  1.00  0.00    -0.360 OA
HETATM   25  H17 SIL     1      53.545  18.251  12.971  1.00  0.00     0.217 HD
ENDBRANCH  16  24
BRANCH  19  26
HETATM   26  O6  SIL     1      49.118  17.379  14.562  1.00  0.00    -0.361 OA
HETATM   27  H16 SIL     1      48.413  16.712  14.626  1.00  0.00     0.217 HD
ENDBRANCH  19  26
ENDBRANCH   8  11
BRANCH   1  28
HETATM   28  C6  SIL     1      48.073  13.889   2.463  1.00  0.00    -0.024 A 
HETATM   29  C5  SIL     1      46.773  14.348   2.207  1.00  0.00     0.013 A 
HETATM   30  C4  SIL     1      46.455  14.927   0.978  1.00  0.00     0.040 A 
HETATM   31  C3  SIL     1      47.440  15.054   0.000  1.00  0.00     0.099 A 
HETATM   32  C2  SIL     1      48.750  14.613   0.231  1.00  0.00     0.101 A 
HETATM   33  C7  SIL     1      49.057  14.032   1.466  1.00  0.00     0.049 A 
BRANCH  31  34
HETATM   34  O10 SIL     1      47.128  15.621  -1.207  1.00  0.00    -0.358 OA
HETATM   35  H22 SIL     1      47.567  15.123  -1.914  1.00  0.00     0.217 HD
ENDBRANCH  31  34
BRANCH  32  36
HETATM   36  O1  SIL     1      49.637  14.789  -0.798  1.00  0.00    -0.353 OA
HETATM   37  C1  SIL     1      50.586  13.760  -1.032  1.00  0.00     0.210 C 
ENDBRANCH  32  36
ENDBRANCH   1  28
BRANCH   2  38
HETATM   38  C25 SIL     1      46.809  11.282   3.475  1.00  0.00     0.199 C 
BRANCH  38  39
HETATM   39  O9  SIL     1      47.588  10.105   3.714  1.00  0.00    -0.398 OA
HETATM   40  H21 SIL     1      48.356  10.391   4.244  1.00  0.00     0.209 HD
ENDBRANCH  38  39
ENDBRANCH   2  38
TORSDOF 9
ENDMDL
