MODEL 1
REMARK VINA RESULT:    -8.769      0.000      0.000
REMARK INTER + INTRA:         -13.621
REMARK INTER:                 -12.101
REMARK INTRA:                  -1.520
REMARK UNBOUND:                -1.520
REMARK  10 active torsions:
REMARK  status: ('A' for Active; 'I' for Inactive)
REMARK    1  A    between atoms: C3_3  and  O10_31 
REMARK    2  A    between atoms: C6_6  and  C7_7 
REMARK    3  A    between atoms: C12_14  and  C16_20 
REMARK    4  A    between atoms: C13_15  and  O4_19 
REMARK    5  A    between atoms: C15_17  and  O3_18 
REMARK    6  A    between atoms: C17_21  and  O9_30 
REMARK    7  A    between atoms: C18_22  and  O8_29 
REMARK    8  A    between atoms: C19_23  and  O7_28 
REMARK    9  A    between atoms: C20_24  and  C21_26 
REMARK   10  A    between atoms: C21_26  and  O6_27 
ROOT
HETATM    1  C7  VIT     1      46.987  35.563  57.947  1.00  0.00     0.090 A 
HETATM    2  C8  VIT     1      47.823  34.767  58.628  1.00  0.00     0.094 A 
HETATM    3  C9  VIT     1      47.297  33.535  59.224  1.00  0.00     0.190 A 
HETATM    4  O1  VIT     1      48.017  32.776  59.863  1.00  0.00    -0.287 OA
HETATM    5  C10 VIT     1      45.869  33.249  59.031  1.00  0.00     0.082 A 
HETATM    6  C11 VIT     1      45.100  34.145  58.283  1.00  0.00     0.104 A 
HETATM    7  O2  VIT     1      45.647  35.286  57.741  1.00  0.00    -0.308 OA
HETATM    8  C12 VIT     1      43.726  33.906  58.068  1.00  0.00     0.041 A 
HETATM    9  C13 VIT     1      43.164  32.754  58.647  1.00  0.00     0.080 A 
HETATM   10  C14 VIT     1      43.929  31.861  59.399  1.00  0.00     0.074 A 
HETATM   11  C15 VIT     1      45.283  32.109  59.585  1.00  0.00     0.085 A 
ENDROOT
BRANCH   8  12
HETATM   12  C16 VIT     1      42.866  34.851  57.242  1.00  0.00     0.192 C 
HETATM   13  C17 VIT     1      42.863  34.501  55.727  1.00  0.00     0.183 C 
HETATM   14  C18 VIT     1      41.531  34.908  55.053  1.00  0.00     0.181 C 
HETATM   15  C19 VIT     1      40.962  36.160  55.734  1.00  0.00     0.180 C 
HETATM   16  C20 VIT     1      40.727  35.908  57.247  1.00  0.00     0.177 C 
HETATM   17  O5  VIT     1      41.534  34.838  57.774  1.00  0.00    -0.368 OA
BRANCH  13  18
HETATM   18  O9  VIT     1      43.950  35.180  55.070  1.00  0.00    -0.390 OA
HETATM   19  H19 VIT     1      44.564  35.459  55.781  1.00  0.00     0.210 HD
ENDBRANCH  13  18
BRANCH  14  20
HETATM   20  O8  VIT     1      40.563  33.859  55.088  1.00  0.00    -0.390 OA
HETATM   21  H18 VIT     1      40.660  33.393  55.939  1.00  0.00     0.210 HD
ENDBRANCH  14  20
BRANCH  15  22
HETATM   22  O7  VIT     1      41.920  37.225  55.561  1.00  0.00    -0.390 OA
HETATM   23  H17 VIT     1      42.796  36.797  55.517  1.00  0.00     0.210 HD
ENDBRANCH  15  22
BRANCH  16  24
HETATM   24  C21 VIT     1      39.263  35.569  57.545  1.00  0.00     0.198 C 
BRANCH  24  25
HETATM   25  O6  VIT     1      39.114  34.173  57.794  1.00  0.00    -0.398 OA
HETATM   26  H16 VIT     1      38.356  33.877  57.260  1.00  0.00     0.209 HD
ENDBRANCH  24  25
ENDBRANCH  16  24
ENDBRANCH   8  12
BRANCH   9  27
HETATM   27  O4  VIT     1      41.831  32.499  58.470  1.00  0.00    -0.360 OA
HETATM   28  H8  VIT     1      41.729  31.710  57.910  1.00  0.00     0.217 HD
ENDBRANCH   9  27
BRANCH  11  29
HETATM   29  O3  VIT     1      45.978  31.194  60.328  1.00  0.00    -0.360 OA
HETATM   30  H7  VIT     1      46.663  30.786  59.751  1.00  0.00     0.217 HD
ENDBRANCH  11  29
BRANCH   1  31
HETATM   31  C6  VIT     1      47.445  36.821  57.325  1.00  0.00    -0.002 A 
HETATM   32  C1  VIT     1      47.042  37.199  56.033  1.00  0.00     0.017 A 
HETATM   33  C2  VIT     1      47.502  38.387  55.455  1.00  0.00     0.037 A 
HETATM   34  C3  VIT     1      48.377  39.200  56.167  1.00  0.00     0.065 A 
HETATM   35  C4  VIT     1      48.798  38.843  57.440  1.00  0.00     0.037 A 
HETATM   36  C5  VIT     1      48.335  37.657  58.017  1.00  0.00     0.017 A 
BRANCH  34  37
HETATM   37  O10 VIT     1      48.852  40.364  55.642  1.00  0.00    -0.361 OA
HETATM   38  H20 VIT     1      49.679  40.179  55.168  1.00  0.00     0.217 HD
ENDBRANCH  34  37
ENDBRANCH   1  31
TORSDOF 10
ENDMDL
