MODEL 1
REMARK VINA RESULT:    -6.864      0.000      0.000
REMARK INTER + INTRA:          -8.810
REMARK INTER:                  -8.268
REMARK INTRA:                  -0.542
REMARK UNBOUND:                -0.542
REMARK  5 active torsions:
REMARK  status: ('A' for Active; 'I' for Inactive)
REMARK    1  A    between atoms: C7_9  and  C18_24 
REMARK    2  A    between atoms: C8_10  and  O2_11 
REMARK    3  A    between atoms: C12_15  and  N2_16 
REMARK    4  A    between atoms: C18_24  and  O3_25 
REMARK    5  A    between atoms: C18_24  and  O4_26 
ROOT
HETATM    1  C1  LEV     1      28.285 -53.630  -6.924  1.00  0.00     0.045 C 
HETATM    2  C2  LEV     1      27.662 -55.007  -7.159  1.00  0.00     0.243 C 
HETATM    3  C3  LEV     1      26.868 -55.023  -8.492  1.00  0.00     0.203 C 
HETATM    4  O1  LEV     1      27.707 -54.982  -9.632  1.00  0.00    -0.379 OA
HETATM    5  C4  LEV     1      28.791 -55.907  -9.585  1.00  0.00     0.191 C 
HETATM    6  C5  LEV     1      28.790 -56.847  -8.349  1.00  0.00     0.261 C 
HETATM    7  N1  LEV     1      28.744 -56.029  -7.123  1.00  0.00     0.103 N 
HETATM    8  C6  LEV     1      28.646 -56.888  -5.925  1.00  0.00     0.285 C 
HETATM    9  C7  LEV     1      29.887 -57.801  -5.812  1.00  0.00     0.098 C 
HETATM   10  C8  LEV     1      30.052 -58.647  -7.102  1.00  0.00     0.135 C 
HETATM   11  C9  LEV     1      30.053 -57.738  -8.354  1.00  0.00     0.054 C 
HETATM   12  C10 LEV     1      30.110 -58.570  -9.656  1.00  0.00     0.049 C 
HETATM   13  C11 LEV     1      30.080 -57.664 -10.898  1.00  0.00     0.206 C 
HETATM   14  C12 LEV     1      28.817 -56.756 -10.876  1.00  0.00     0.287 C 
HETATM   15  F1  LEV     1      31.245 -56.916 -10.914  1.00  0.00    -0.247 F 
ENDROOT
BRANCH  14  16
HETATM   16  N2  LEV     1      28.629 -55.911 -12.089  1.00  0.00     0.102 N 
HETATM   17  C13 LEV     1      29.341 -54.620 -12.087  1.00  0.00     0.303 C 
HETATM   18  C14 LEV     1      28.853 -53.765 -13.265  1.00  0.00     0.302 C 
HETATM   19  N3  LEV     1      29.007 -54.457 -14.561  1.00  0.00     0.087 N 
HETATM   20  C15 LEV     1      28.424 -55.815 -14.541  1.00  0.00     0.302 C 
HETATM   21  C17 LEV     1      30.399 -54.452 -15.043  1.00  0.00     0.310 C 
HETATM   22  C16 LEV     1      28.902 -56.643 -13.339  1.00  0.00     0.303 C 
ENDBRANCH  14  16
BRANCH  10  23
HETATM   23  O2  LEV     1      31.229 -59.418  -7.049  1.00  0.00    -0.395 OA
HETATM   24  H6  LEV     1      31.192 -59.968  -6.223  1.00  0.00     0.210 HD
ENDBRANCH  10  23
BRANCH   9  25
HETATM   25  C18 LEV     1      29.820 -58.697  -4.551  1.00  0.00     0.262 C 
BRANCH  25  26
HETATM   26  O3  LEV     1      31.084 -58.780  -3.949  1.00  0.00    -0.371 OA
HETATM   27  H12 LEV     1      31.575 -59.499  -4.427  1.00  0.00     0.212 HD
ENDBRANCH  25  26
BRANCH  25  28
HETATM   28  O4  LEV     1      29.383 -59.988  -4.891  1.00  0.00    -0.371 OA
HETATM   29  H20 LEV     1      28.673 -59.880  -5.577  1.00  0.00     0.212 HD
ENDBRANCH  25  28
ENDBRANCH   9  25
TORSDOF 5
ENDMDL
