MODEL 1
REMARK VINA RESULT:    -6.160      0.000      0.000
REMARK INTER + INTRA:         -15.717
REMARK INTER:                 -11.742
REMARK INTRA:                  -3.975
REMARK UNBOUND:                -3.975
REMARK  22 active torsions:
REMARK  status: ('A' for Active; 'I' for Inactive)
REMARK    1  A    between atoms: C2_2  and  N6_42 
REMARK    2  A    between atoms: C3_3  and  O13_41 
REMARK    3  A    between atoms: C4_4  and  O5_20 
REMARK    4  A    between atoms: C5_5  and  O1_8 
REMARK    5  A    between atoms: C6_6  and  N1_7 
REMARK    6  A    between atoms: O1_8  and  C7_9 
REMARK    7  A    between atoms: C8_10  and  N3_19 
REMARK    8  A    between atoms: C9_11  and  O4_18 
REMARK    9  A    between atoms: C10_12  and  O3_17 
REMARK   10  A    between atoms: C11_13  and  C12_15 
REMARK   11  A    between atoms: C12_15  and  N2_16 
REMARK   12  A    between atoms: O5_20  and  C13_21 
REMARK   13  A    between atoms: C14_22  and  O12_40 
REMARK   14  A    between atoms: C15_23  and  O8_28 
REMARK   15  A    between atoms: C16_24  and  C17_26 
REMARK   16  A    between atoms: C17_26  and  O7_27 
REMARK   17  A    between atoms: O8_28  and  C18_29 
REMARK   18  A    between atoms: C19_30  and  N5_39 
REMARK   19  A    between atoms: C20_31  and  O11_38 
REMARK   20  A    between atoms: C21_32  and  O10_37 
REMARK   21  A    between atoms: C22_33  and  C23_35 
REMARK   22  A    between atoms: C23_35  and  N4_36 
ROOT
HETATM    1  C1  NEO     1      20.652 -49.598 -16.270  1.00  0.00     0.076 C 
HETATM    2  C2  NEO     1      19.620 -49.459 -17.398  1.00  0.00     0.251 C 
HETATM    3  C3  NEO     1      18.213 -49.192 -16.818  1.00  0.00     0.182 C 
HETATM    4  C4  NEO     1      18.226 -47.932 -15.928  1.00  0.00     0.186 C 
HETATM    5  C5  NEO     1      19.250 -48.073 -14.779  1.00  0.00     0.189 C 
HETATM    6  C6  NEO     1      20.665 -48.352 -15.361  1.00  0.00     0.251 C 
ENDROOT
BRANCH   4   7
HETATM    7  O5  NEO     1      16.931 -47.751 -15.369  1.00  0.00    -0.348 OA
BRANCH   7   8
HETATM    8  C13 NEO     1      16.330 -46.542 -15.803  1.00  0.00     0.292 C 
HETATM    9  C14 NEO     1      15.844 -45.748 -14.600  1.00  0.00     0.205 C 
HETATM   10  C15 NEO     1      15.892 -44.328 -15.112  1.00  0.00     0.189 C 
HETATM   11  C16 NEO     1      17.051 -44.400 -16.118  1.00  0.00     0.180 C 
HETATM   12  O6  NEO     1      17.289 -45.751 -16.471  1.00  0.00    -0.348 OA
BRANCH   9  13
HETATM   13  O12 NEO     1      14.572 -46.139 -14.138  1.00  0.00    -0.388 OA
HETATM   14  H43 NEO     1      14.247 -45.469 -13.481  1.00  0.00     0.210 HD
ENDBRANCH   9  13
BRANCH  10  15
HETATM   15  O8  NEO     1      14.704 -44.014 -15.827  1.00  0.00    -0.348 OA
BRANCH  15  16
HETATM   16  C18 NEO     1      14.073 -42.863 -15.306  1.00  0.00     0.296 C 
HETATM   17  C19 NEO     1      13.764 -41.899 -16.476  1.00  0.00     0.303 C 
HETATM   18  C20 NEO     1      13.173 -40.573 -15.945  1.00  0.00     0.187 C 
HETATM   19  C21 NEO     1      13.996 -40.023 -14.760  1.00  0.00     0.179 C 
HETATM   20  C22 NEO     1      14.269 -41.151 -13.736  1.00  0.00     0.183 C 
HETATM   21  O9  NEO     1      14.931 -42.233 -14.367  1.00  0.00    -0.349 OA
BRANCH  17  22
HETATM   22  N5  NEO     1      14.952 -41.638 -17.299  1.00  0.00     0.090 N 
HETATM   23  H41 NEO     1      15.090 -40.610 -17.424  1.00  0.00     0.313 HD
HETATM   24  H42 NEO     1      15.795 -42.001 -16.795  1.00  0.00     0.313 HD
ENDBRANCH  17  22
BRANCH  18  25
HETATM   25  O11 NEO     1      11.848 -40.776 -15.525  1.00  0.00    -0.391 OA
HETATM   26  H40 NEO     1      11.477 -41.509 -16.082  1.00  0.00     0.210 HD
ENDBRANCH  18  25
BRANCH  19  27
HETATM   27  O10 NEO     1      15.211 -39.486 -15.216  1.00  0.00    -0.390 OA
HETATM   28  H39 NEO     1      15.918 -39.814 -14.604  1.00  0.00     0.210 HD
ENDBRANCH  19  27
BRANCH  20  29
HETATM   29  C23 NEO     1      15.141 -40.675 -12.553  1.00  0.00     0.301 C 
BRANCH  29  30
HETATM   30  N4  NEO     1      16.291 -41.545 -12.313  1.00  0.00     0.080 N 
HETATM   31  H37 NEO     1      15.960 -42.454 -11.916  1.00  0.00     0.312 HD
HETATM   32  H38 NEO     1      16.782 -41.737 -13.216  1.00  0.00     0.312 HD
ENDBRANCH  29  30
ENDBRANCH  20  29
ENDBRANCH  15  16
ENDBRANCH  10  15
BRANCH  11  33
HETATM   33  C17 NEO     1      18.346 -43.772 -15.571  1.00  0.00     0.198 C 
BRANCH  33  34
HETATM   34  O7  NEO     1      18.064 -42.692 -14.720  1.00  0.00    -0.398 OA
HETATM   35  H29 NEO     1      17.420 -43.019 -14.040  1.00  0.00     0.209 HD
ENDBRANCH  33  34
ENDBRANCH  11  33
ENDBRANCH   7   8
ENDBRANCH   4   7
BRANCH   3  36
HETATM   36  O13 NEO     1      17.307 -49.012 -17.877  1.00  0.00    -0.391 OA
HETATM   37  H44 NEO     1      17.404 -48.074 -18.189  1.00  0.00     0.210 HD
ENDBRANCH   3  36
BRANCH   5  38
HETATM   38  O1  NEO     1      19.242 -46.846 -14.066  1.00  0.00    -0.349 OA
BRANCH  38  39
HETATM   39  C7  NEO     1      19.446 -47.002 -12.665  1.00  0.00     0.296 C 
HETATM   40  C8  NEO     1      18.203 -46.536 -11.886  1.00  0.00     0.303 C 
HETATM   41  C9  NEO     1      18.002 -45.021 -12.084  1.00  0.00     0.187 C 
HETATM   42  C10 NEO     1      19.305 -44.251 -11.781  1.00  0.00     0.179 C 
HETATM   43  C11 NEO     1      20.489 -44.888 -12.554  1.00  0.00     0.183 C 
HETATM   44  O2  NEO     1      20.589 -46.273 -12.244  1.00  0.00    -0.349 OA
BRANCH  40  45
HETATM   45  N3  NEO     1      17.020 -47.274 -12.335  1.00  0.00     0.090 N 
HETATM   46  H21 NEO     1      17.271 -47.814 -13.195  1.00  0.00     0.313 HD
HETATM   47  H22 NEO     1      16.785 -47.989 -11.609  1.00  0.00     0.313 HD
ENDBRANCH  40  45
BRANCH  41  48
HETATM   48  O4  NEO     1      16.944 -44.546 -11.287  1.00  0.00    -0.391 OA
HETATM   49  H20 NEO     1      16.622 -43.698 -11.689  1.00  0.00     0.210 HD
ENDBRANCH  41  48
BRANCH  42  50
HETATM   50  O3  NEO     1      19.142 -42.911 -12.166  1.00  0.00    -0.390 OA
HETATM   51  H19 NEO     1      19.128 -42.370 -11.333  1.00  0.00     0.210 HD
ENDBRANCH  42  50
BRANCH  43  52
HETATM   52  C12 NEO     1      21.843 -44.240 -12.179  1.00  0.00     0.301 C 
BRANCH  52  53
HETATM   53  N2  NEO     1      21.844 -43.625 -10.851  1.00  0.00     0.080 N 
HETATM   54  H17 NEO     1      22.662 -42.985 -10.760  1.00  0.00     0.312 HD
HETATM   55  H18 NEO     1      21.911 -44.364 -10.113  1.00  0.00     0.312 HD
ENDBRANCH  52  53
ENDBRANCH  43  52
ENDBRANCH  38  39
ENDBRANCH   5  38
BRANCH   2  56
HETATM   56  N6  NEO     1      19.635 -50.672 -18.221  1.00  0.00     0.085 N 
HETATM   57  H45 NEO     1      18.770 -50.701 -18.811  1.00  0.00     0.313 HD
HETATM   58  H46 NEO     1      20.456 -50.639 -18.871  1.00  0.00     0.313 HD
ENDBRANCH   2  56
BRANCH   6  59
HETATM   59  N1  NEO     1      21.647 -48.524 -14.288  1.00  0.00     0.085 N 
HETATM   60  H8  NEO     1      22.419 -49.145 -14.621  1.00  0.00     0.313 HD
HETATM   61  H9  NEO     1      22.068 -47.593 -14.059  1.00  0.00     0.313 HD
ENDBRANCH   6  59
TORSDOF 22
ENDMDL
