MODEL 1
REMARK VINA RESULT:    -6.916      0.000      0.000
REMARK INTER + INTRA:         -15.680
REMARK INTER:                 -12.173
REMARK INTRA:                  -3.507
REMARK UNBOUND:                -3.507
REMARK  17 active torsions:
REMARK  status: ('A' for Active; 'I' for Inactive)
REMARK    1  A    between atoms: C3_3  and  C21_38 
REMARK    2  A    between atoms: C3_3  and  O12_40 
REMARK    3  A    between atoms: C4_4  and  O6_25 
REMARK    4  A    between atoms: C5_5  and  O2_7 
REMARK    5  A    between atoms: O2_7  and  C6_8 
REMARK    6  A    between atoms: C7_9  and  N4_21 
REMARK    7  A    between atoms: C8_10  and  O5_20 
REMARK    8  A    between atoms: C9_11  and  N1_16 
REMARK    9  A    between atoms: C10_12  and  O4_15 
REMARK   10  A    between atoms: C11_13  and  O3_14 
REMARK       I    between atoms: N1_16  and  C12_17 
REMARK       I    between atoms: C12_17  and  N2_18 
REMARK       I    between atoms: C12_17  and  N3_19 
REMARK       I    between atoms: N4_21  and  C13_22 
REMARK       I    between atoms: C13_22  and  N5_23 
REMARK       I    between atoms: C13_22  and  N6_24 
REMARK   11  A    between atoms: O6_25  and  C14_26 
REMARK   12  A    between atoms: C15_27  and  N7_36 
REMARK   13  A    between atoms: C16_28  and  O10_35 
REMARK   14  A    between atoms: C17_29  and  O9_34 
REMARK   15  A    between atoms: C18_30  and  C19_32 
REMARK   16  A    between atoms: C19_32  and  O8_33 
REMARK   17  A    between atoms: C21_38  and  O11_39 
ROOT
HETATM    1  C6  STM     1     -31.610  -4.664 -10.926  1.00  0.00     0.192 C 
HETATM    2  C7  STM     1     -31.708  -6.180 -11.246  1.00  0.00     0.287 C 
HETATM    3  C8  STM     1     -30.501  -6.662 -12.097  1.00  0.00     0.190 C 
HETATM    4  C9  STM     1     -29.160  -6.310 -11.388  1.00  0.00     0.287 C 
HETATM    5  C10 STM     1     -29.067  -4.803 -11.035  1.00  0.00     0.185 C 
HETATM    6  C11 STM     1     -30.280  -4.365 -10.187  1.00  0.00     0.180 C 
ENDROOT
BRANCH   1   7
HETATM    7  O2  STM     1     -32.719  -4.311 -10.109  1.00  0.00    -0.348 OA
BRANCH   7   8
HETATM    8  C5  STM     1     -32.853  -5.143  -8.963  1.00  0.00     0.293 C 
HETATM    9  C4  STM     1     -32.602  -4.319  -7.699  1.00  0.00     0.218 C 
HETATM   10  C3  STM     1     -34.003  -3.840  -7.299  1.00  0.00     0.135 C 
HETATM   11  C2  STM     1     -34.940  -4.722  -8.178  1.00  0.00     0.160 C 
HETATM   12  C1  STM     1     -36.000  -5.506  -7.397  1.00  0.00     0.043 C 
HETATM   13  O1  STM     1     -34.164  -5.642  -8.906  1.00  0.00    -0.350 OA
BRANCH   9  14
HETATM   14  O6  STM     1     -32.051  -5.151  -6.685  1.00  0.00    -0.346 OA
BRANCH  14  15
HETATM   15  C14 STM     1     -30.952  -4.534  -6.018  1.00  0.00     0.297 C 
HETATM   16  C15 STM     1     -29.878  -5.602  -5.655  1.00  0.00     0.305 C 
HETATM   17  C16 STM     1     -28.512  -4.952  -5.289  1.00  0.00     0.187 C 
HETATM   18  C17 STM     1     -28.674  -3.438  -5.019  1.00  0.00     0.180 C 
HETATM   19  C18 STM     1     -29.424  -2.737  -6.203  1.00  0.00     0.179 C 
HETATM   20  O7  STM     1     -30.388  -3.558  -6.872  1.00  0.00    -0.349 OA
BRANCH  16  21
HETATM   21  N7  STM     1     -29.703  -6.661  -6.686  1.00  0.00     0.091 N 
HETATM   22  C20 STM     1     -28.498  -6.526  -7.522  1.00  0.00     0.307 C 
HETATM   23  H34 STM     1     -30.535  -6.658  -7.317  1.00  0.00     0.316 HD
ENDBRANCH  16  21
BRANCH  17  24
HETATM   24  O10 STM     1     -27.987  -5.590  -4.150  1.00  0.00    -0.391 OA
HETATM   25  H33 STM     1     -27.175  -5.086  -3.884  1.00  0.00     0.210 HD
ENDBRANCH  17  24
BRANCH  18  26
HETATM   26  O9  STM     1     -27.432  -2.820  -4.788  1.00  0.00    -0.390 OA
HETATM   27  H32 STM     1     -26.888  -2.903  -5.610  1.00  0.00     0.210 HD
ENDBRANCH  18  26
BRANCH  19  28
HETATM   28  C19 STM     1     -30.084  -1.423  -5.746  1.00  0.00     0.198 C 
BRANCH  28  29
HETATM   29  O8  STM     1     -30.466  -0.658  -6.857  1.00  0.00    -0.398 OA
HETATM   30  H31 STM     1     -30.011   0.225  -6.779  1.00  0.00     0.209 HD
ENDBRANCH  28  29
ENDBRANCH  19  28
ENDBRANCH  14  15
ENDBRANCH   9  14
BRANCH  10  31
HETATM   31  C21 STM     1     -34.194  -2.330  -7.609  1.00  0.00     0.207 C 
BRANCH  31  32
HETATM   32  O11 STM     1     -32.962  -1.665  -7.684  1.00  0.00    -0.398 OA
HETATM   33  H6  STM     1     -32.847  -1.204  -6.809  1.00  0.00     0.209 HD
ENDBRANCH  31  32
ENDBRANCH  10  31
BRANCH  10  34
HETATM   34  O12 STM     1     -34.194  -4.052  -5.913  1.00  0.00    -0.382 OA
HETATM   35  H39 STM     1     -35.046  -4.538  -5.786  1.00  0.00     0.210 HD
ENDBRANCH  10  34
ENDBRANCH   7   8
ENDBRANCH   1   7
BRANCH   2  36
HETATM   36  N4  STM     1     -33.029  -6.556 -11.812  1.00  0.00     0.156 N 
HETATM   37  C13 STM     1     -33.471  -5.827 -13.014  1.00  0.00     0.674 C 
HETATM   38  N5  STM     1     -34.926  -5.965 -13.147  1.00  0.00     0.142 N 
HETATM   39  N6  STM     1     -32.806  -6.353 -14.213  1.00  0.00     0.142 N 
HETATM   40  H20 STM     1     -35.258  -5.299 -13.888  1.00  0.00     0.318 HD
HETATM   41  H21 STM     1     -35.374  -5.660 -12.251  1.00  0.00     0.318 HD
HETATM   42  H22 STM     1     -32.547  -5.542 -14.836  1.00  0.00     0.318 HD
HETATM   43  H23 STM     1     -33.457  -6.966 -14.766  1.00  0.00     0.318 HD
HETATM   44  H3  STM     1     -33.047  -7.585 -12.009  1.00  0.00     0.321 HD
ENDBRANCH   2  36
BRANCH   6  45
HETATM   45  O3  STM     1     -30.182  -2.987  -9.934  1.00  0.00    -0.390 OA
HETATM   46  H13 STM     1     -29.308  -2.693 -10.297  1.00  0.00     0.210 HD
ENDBRANCH   6  45
BRANCH   3  47
HETATM   47  O5  STM     1     -30.584  -8.049 -12.325  1.00  0.00    -0.391 OA
HETATM   48  H19 STM     1     -30.410  -8.215 -13.290  1.00  0.00     0.210 HD
ENDBRANCH   3  47
BRANCH   5  49
HETATM   49  O4  STM     1     -27.894  -4.547 -10.303  1.00  0.00    -0.391 OA
HETATM   50  H14 STM     1     -28.121  -3.864  -9.613  1.00  0.00     0.210 HD
ENDBRANCH   5  49
BRANCH   4  51
HETATM   51  N1  STM     1     -27.941  -6.778 -12.094  1.00  0.00     0.156 N 
HETATM   52  C12 STM     1     -27.017  -7.724 -11.428  1.00  0.00     0.674 C 
HETATM   53  N2  STM     1     -27.735  -8.836 -10.805  1.00  0.00     0.142 N 
HETATM   54  N3  STM     1     -26.182  -7.044 -10.440  1.00  0.00     0.142 N 
HETATM   55  H15 STM     1     -27.034  -9.469 -10.345  1.00  0.00     0.318 HD
HETATM   56  H16 STM     1     -28.169  -9.414 -11.564  1.00  0.00     0.318 HD
HETATM   57  H17 STM     1     -25.485  -7.728 -10.073  1.00  0.00     0.318 HD
HETATM   58  H18 STM     1     -25.620  -6.315 -10.936  1.00  0.00     0.318 HD
HETATM   59  H1  STM     1     -27.400  -5.953 -12.440  1.00  0.00     0.321 HD
ENDBRANCH   4  51
TORSDOF 17
ENDMDL
