MODEL 1
REMARK VINA RESULT:      -5.4      0.000      0.000
REMARK  3 active torsions:
REMARK  status: ('A' for Active; 'I' for Inactive)
REMARK    1  A    between atoms: O_2  and  C_16 
REMARK    2  A    between atoms: N_4  and  C_8 
REMARK    3  A    between atoms: C_10  and  C_16 
ROOT
HETATM    1  O   NDX     0     -33.400   7.886  37.018  0.00  0.00    -0.286 OA
HETATM    2  N   NDX     0     -34.933   9.872  40.218  0.00  0.00    -0.340 N 
HETATM    3  N   NDX     0     -34.537  11.998  39.135  0.00  0.00    -0.235 NA
HETATM    4  C   NDX     0     -34.469  10.640  39.118  0.00  0.00     0.144 A 
HETATM    5  C   NDX     0     -33.936   9.970  38.004  0.00  0.00     0.061 A 
HETATM    6  C   NDX     0     -34.858   8.495  40.183  0.00  0.00     0.115 A 
HETATM    7  C   NDX     0     -34.369   7.765  39.174  0.00  0.00     0.104 A 
HETATM    8  C   NDX     0     -33.860   8.487  37.981  0.00  0.00     0.204 A 
HETATM    9  C   NDX     0     -33.473  10.701  36.908  0.00  0.00     0.021 A 
HETATM   10  C   NDX     0     -34.080  12.680  38.060  0.00  0.00     0.033 A 
HETATM   11  C   NDX     0     -33.545  12.086  36.934  0.00  0.00     0.028 A 
HETATM   12  C   NDX     0     -34.175  14.168  38.126  0.00  0.00     0.070 C 
ENDROOT
BRANCH   7  13
HETATM   13  C   NDX     0     -34.363   6.307  39.303  0.00  0.00     0.181 C 
HETATM   14  O   NDX     0     -34.521   5.551  38.353  0.00  0.00    -0.646 OA
BRANCH  13  15
HETATM   15  O   NDX     0     -34.159   5.959  40.587  0.00  0.00    -0.773 OA
HETATM   16  H   NDX     0     -33.842   6.712  41.128  0.00  0.00     0.167 HD
ENDBRANCH  13  15
ENDBRANCH   7  13
BRANCH   2  17
HETATM   17  C   NDX     0     -35.476  10.618  41.345  0.00  0.00     0.125 C 
HETATM   18  C   NDX     0     -36.983  10.445  41.444  0.00  0.00     0.027 C 
ENDBRANCH   2  17
TORSDOF 3
ENDMDL
