MODEL 1
REMARK VINA RESULT:      -3.2      0.000      0.000
REMARK  3 active torsions:
REMARK  status: ('A' for Active; 'I' for Inactive)
REMARK    1  A    between atoms: O_2  and  C_16 
REMARK    2  A    between atoms: N_4  and  C_8 
REMARK    3  A    between atoms: C_10  and  C_16 
ROOT
HETATM    1  O   NDX     0     -53.460   7.215  17.029  0.00  0.00    -0.286 OA
HETATM    2  N   NDX     0     -54.114   3.759  19.070  0.00  0.00    -0.340 N 
HETATM    3  N   NDX     0     -54.192   4.967  21.165  0.00  0.00    -0.235 NA
HETATM    4  C   NDX     0     -54.043   4.967  19.813  0.00  0.00     0.144 A 
HETATM    5  C   NDX     0     -53.818   6.170  19.123  0.00  0.00     0.061 A 
HETATM    6  C   NDX     0     -53.963   3.778  17.699  0.00  0.00     0.115 A 
HETATM    7  C   NDX     0     -53.745   4.866  16.952  0.00  0.00     0.104 A 
HETATM    8  C   NDX     0     -53.656   6.175  17.646  0.00  0.00     0.204 A 
HETATM    9  C   NDX     0     -53.744   7.373  19.829  0.00  0.00     0.021 A 
HETATM   10  C   NDX     0     -54.115   6.147  21.822  0.00  0.00     0.033 A 
HETATM   11  C   NDX     0     -53.896   7.365  21.207  0.00  0.00     0.028 A 
HETATM   12  C   NDX     0     -54.283   6.096  23.304  0.00  0.00     0.070 C 
ENDROOT
BRANCH   7  13
HETATM   13  C   NDX     0     -53.607   4.705  15.504  0.00  0.00     0.181 C 
HETATM   14  O   NDX     0     -54.470   4.192  14.803  0.00  0.00    -0.646 OA
BRANCH  13  15
HETATM   15  O   NDX     0     -52.424   5.199  15.096  0.00  0.00    -0.773 OA
HETATM   16  H   NDX     0     -51.766   4.491  14.928  0.00  0.00     0.167 HD
ENDBRANCH  13  15
ENDBRANCH   7  13
BRANCH   2  17
HETATM   17  C   NDX     0     -54.351   2.542  19.836  0.00  0.00     0.125 C 
HETATM   18  C   NDX     0     -53.431   1.421  19.383  0.00  0.00     0.027 C 
ENDBRANCH   2  17
TORSDOF 3
ENDMDL
