MODEL 1
REMARK VINA RESULT:      -4.7      0.000      0.000
REMARK  3 active torsions:
REMARK  status: ('A' for Active; 'I' for Inactive)
REMARK    1  A    between atoms: O_2  and  C_16 
REMARK    2  A    between atoms: N_4  and  C_8 
REMARK    3  A    between atoms: C_10  and  C_16 
ROOT
HETATM    1  O   NDX     0      22.778   2.021 -56.712  0.00  0.00    -0.286 OA
HETATM    2  N   NDX     0      18.870   0.998 -57.181  0.00  0.00    -0.340 N 
HETATM    3  N   NDX     0      18.636   2.581 -58.996  0.00  0.00    -0.235 NA
HETATM    4  C   NDX     0      19.406   1.991 -58.043  0.00  0.00     0.144 A 
HETATM    5  C   NDX     0      20.754   2.357 -57.894  0.00  0.00     0.061 A 
HETATM    6  C   NDX     0      19.667   0.410 -56.221  0.00  0.00     0.115 A 
HETATM    7  C   NDX     0      20.956   0.687 -56.000  0.00  0.00     0.104 A 
HETATM    8  C   NDX     0      21.600   1.715 -56.855  0.00  0.00     0.204 A 
HETATM    9  C   NDX     0      21.307   3.331 -58.728  0.00  0.00     0.021 A 
HETATM   10  C   NDX     0      19.198   3.521 -59.789  0.00  0.00     0.033 A 
HETATM   11  C   NDX     0      20.515   3.927 -59.698  0.00  0.00     0.028 A 
HETATM   12  C   NDX     0      18.313   4.140 -60.819  0.00  0.00     0.070 C 
ENDROOT
BRANCH   7  13
HETATM   13  C   NDX     0      21.654  -0.034 -54.934  0.00  0.00     0.181 C 
HETATM   14  O   NDX     0      22.425  -0.961 -55.148  0.00  0.00    -0.646 OA
BRANCH  13  15
HETATM   15  O   NDX     0      21.321   0.479 -53.735  0.00  0.00    -0.773 OA
HETATM   16  H   NDX     0      22.109   0.725 -53.207  0.00  0.00     0.167 HD
ENDBRANCH  13  15
ENDBRANCH   7  13
BRANCH   2  17
HETATM   17  C   NDX     0      17.467   0.658 -57.381  0.00  0.00     0.125 C 
HETATM   18  C   NDX     0      17.322  -0.636 -58.165  0.00  0.00     0.027 C 
ENDBRANCH   2  17
TORSDOF 3
ENDMDL
