MODEL 1
REMARK VINA RESULT:      -2.8      0.000      0.000
REMARK  3 active torsions:
REMARK  status: ('A' for Active; 'I' for Inactive)
REMARK    1  A    between atoms: O_2  and  C_16 
REMARK    2  A    between atoms: N_4  and  C_8 
REMARK    3  A    between atoms: C_10  and  C_16 
ROOT
HETATM    1  O   NDX     0     -42.111   7.928  17.982  0.00  0.00    -0.286 OA
HETATM    2  N   NDX     0     -44.466   4.932  16.564  0.00  0.00    -0.340 N 
HETATM    3  N   NDX     0     -44.221   5.758  14.304  0.00  0.00    -0.235 NA
HETATM    4  C   NDX     0     -43.943   5.865  15.631  0.00  0.00     0.144 A 
HETATM    5  C   NDX     0     -43.128   6.907  16.104  0.00  0.00     0.061 A 
HETATM    6  C   NDX     0     -44.173   5.054  17.907  0.00  0.00     0.115 A 
HETATM    7  C   NDX     0     -43.411   6.007  18.455  0.00  0.00     0.104 A 
HETATM    8  C   NDX     0     -42.821   7.027  17.553  0.00  0.00     0.204 A 
HETATM    9  C   NDX     0     -42.599   7.839  15.208  0.00  0.00     0.021 A 
HETATM   10  C   NDX     0     -43.696   6.675  13.459  0.00  0.00     0.033 A 
HETATM   11  C   NDX     0     -42.887   7.723  13.856  0.00  0.00     0.028 A 
HETATM   12  C   NDX     0     -44.029   6.517  12.013  0.00  0.00     0.070 C 
ENDROOT
BRANCH   7  13
HETATM   13  C   NDX     0     -43.203   5.989  19.904  0.00  0.00     0.181 C 
HETATM   14  O   NDX     0     -42.416   6.732  20.475  0.00  0.00    -0.646 OA
BRANCH  13  15
HETATM   15  O   NDX     0     -43.995   5.061  20.472  0.00  0.00    -0.773 OA
HETATM   16  H   NDX     0     -44.586   4.630  19.819  0.00  0.00     0.167 HD
ENDBRANCH  13  15
ENDBRANCH   7  13
BRANCH   2  17
HETATM   17  C   NDX     0     -45.305   3.872  16.018  0.00  0.00     0.125 C 
HETATM   18  C   NDX     0     -45.789   2.936  17.113  0.00  0.00     0.027 C 
ENDBRANCH   2  17
TORSDOF 3
ENDMDL
