MODEL 1
REMARK VINA RESULT:      -6.4      0.000      0.000
REMARK  3 active torsions:
REMARK  status: ('A' for Active; 'I' for Inactive)
REMARK    1  A    between atoms: O_2  and  C_16 
REMARK    2  A    between atoms: N_4  and  C_8 
REMARK    3  A    between atoms: C_10  and  C_16 
ROOT
HETATM    1  O   NDX     0     -32.800  -3.744  47.185  0.00  0.00    -0.286 OA
HETATM    2  N   NDX     0     -28.806  -3.809  47.946  0.00  0.00    -0.340 N 
HETATM    3  N   NDX     0     -29.012  -1.877  49.388  0.00  0.00    -0.235 NA
HETATM    4  C   NDX     0     -29.585  -2.796  48.565  0.00  0.00     0.144 A 
HETATM    5  C   NDX     0     -30.967  -2.759  48.312  0.00  0.00     0.061 A 
HETATM    6  C   NDX     0     -29.405  -4.734  47.115  0.00  0.00     0.115 A 
HETATM    7  C   NDX     0     -30.706  -4.783  46.812  0.00  0.00     0.104 A 
HETATM    8  C   NDX     0     -31.597  -3.761  47.415  0.00  0.00     0.204 A 
HETATM    9  C   NDX     0     -31.757  -1.773  48.908  0.00  0.00     0.021 A 
HETATM   10  C   NDX     0     -29.802  -0.934  49.950  0.00  0.00     0.033 A 
HETATM   11  C   NDX     0     -31.165  -0.840  49.746  0.00  0.00     0.028 A 
HETATM   12  C   NDX     0     -29.128   0.052  50.845  0.00  0.00     0.070 C 
ENDROOT
BRANCH   7  13
HETATM   13  C   NDX     0     -31.175  -5.835  45.908  0.00  0.00     0.181 C 
HETATM   14  O   NDX     0     -30.644  -6.937  45.833  0.00  0.00    -0.646 OA
BRANCH  13  15
HETATM   15  O   NDX     0     -32.242  -5.404  45.211  0.00  0.00    -0.773 OA
HETATM   16  H   NDX     0     -32.352  -4.431  45.269  0.00  0.00     0.167 HD
ENDBRANCH  13  15
ENDBRANCH   7  13
BRANCH   2  17
HETATM   17  C   NDX     0     -27.380  -3.801  48.244  0.00  0.00     0.125 C 
HETATM   18  C   NDX     0     -26.973  -5.045  49.014  0.00  0.00     0.027 C 
ENDBRANCH   2  17
TORSDOF 3
ENDMDL
