MODEL 1
REMARK VINA RESULT:      -6.9      0.000      0.000
REMARK  3 active torsions:
REMARK  status: ('A' for Active; 'I' for Inactive)
REMARK    1  A    between atoms: O_2  and  C_16 
REMARK    2  A    between atoms: N_4  and  C_8 
REMARK    3  A    between atoms: C_10  and  C_16 
ROOT
HETATM    1  O   NDX     0     -25.923   5.238  43.980  0.00  0.00    -0.286 OA
HETATM    2  N   NDX     0     -24.670   1.984  46.071  0.00  0.00    -0.340 N 
HETATM    3  N   NDX     0     -23.970   3.390  47.911  0.00  0.00    -0.235 NA
HETATM    4  C   NDX     0     -24.517   3.260  46.673  0.00  0.00     0.144 A 
HETATM    5  C   NDX     0     -24.945   4.395  45.964  0.00  0.00     0.061 A 
HETATM    6  C   NDX     0     -25.229   1.871  44.815  0.00  0.00     0.115 A 
HETATM    7  C   NDX     0     -25.665   2.886  44.061  0.00  0.00     0.104 A 
HETATM    8  C   NDX     0     -25.544   4.259  44.611  0.00  0.00     0.204 A 
HETATM    9  C   NDX     0     -24.807   5.664  46.533  0.00  0.00     0.021 A 
HETATM   10  C   NDX     0     -23.848   4.630  48.437  0.00  0.00     0.033 A 
HETATM   11  C   NDX     0     -24.248   5.787  47.796  0.00  0.00     0.028 A 
HETATM   12  C   NDX     0     -23.242   4.721  49.797  0.00  0.00     0.070 C 
ENDROOT
BRANCH   7  13
HETATM   13  C   NDX     0     -26.231   2.588  42.745  0.00  0.00     0.181 C 
HETATM   14  O   NDX     0     -27.061   1.706  42.559  0.00  0.00    -0.646 OA
BRANCH  13  15
HETATM   15  O   NDX     0     -25.710   3.414  41.820  0.00  0.00    -0.773 OA
HETATM   16  H   NDX     0     -26.042   4.332  41.915  0.00  0.00     0.167 HD
ENDBRANCH  13  15
ENDBRANCH   7  13
BRANCH   2  17
HETATM   17  C   NDX     0     -24.211   0.842  46.851  0.00  0.00     0.125 C 
HETATM   18  C   NDX     0     -23.774  -0.300  45.949  0.00  0.00     0.027 C 
ENDBRANCH   2  17
TORSDOF 3
ENDMDL
