MODEL 1
REMARK VINA RESULT:      -5.4      0.000      0.000
REMARK  3 active torsions:
REMARK  status: ('A' for Active; 'I' for Inactive)
REMARK    1  A    between atoms: O_2  and  C_16 
REMARK    2  A    between atoms: N_4  and  C_8 
REMARK    3  A    between atoms: C_10  and  C_16 
ROOT
HETATM    1  O   NDX     0     -51.718 -23.667  43.860  0.00  0.00    -0.286 OA
HETATM    2  N   NDX     0     -48.909 -22.583  46.593  0.00  0.00    -0.340 N 
HETATM    3  N   NDX     0     -48.851 -24.832  47.481  0.00  0.00    -0.235 NA
HETATM    4  C   NDX     0     -49.352 -23.931  46.594  0.00  0.00     0.144 A 
HETATM    5  C   NDX     0     -50.322 -24.323  45.656  0.00  0.00     0.061 A 
HETATM    6  C   NDX     0     -49.427 -21.683  45.685  0.00  0.00     0.115 A 
HETATM    7  C   NDX     0     -50.351 -21.955  44.756  0.00  0.00     0.104 A 
HETATM    8  C   NDX     0     -50.872 -23.343  44.685  0.00  0.00     0.204 A 
HETATM    9  C   NDX     0     -50.776 -25.644  45.634  0.00  0.00     0.021 A 
HETATM   10  C   NDX     0     -49.309 -26.104  47.437  0.00  0.00     0.033 A 
HETATM   11  C   NDX     0     -50.260 -26.556  46.543  0.00  0.00     0.028 A 
HETATM   12  C   NDX     0     -48.729 -27.056  48.430  0.00  0.00     0.070 C 
ENDROOT
BRANCH   7  13
HETATM   13  C   NDX     0     -50.792 -20.876  43.871  0.00  0.00     0.181 C 
HETATM   14  O   NDX     0     -50.113 -20.453  42.944  0.00  0.00    -0.646 OA
BRANCH  13  15
HETATM   15  O   NDX     0     -52.018 -20.455  44.232  0.00  0.00    -0.773 OA
HETATM   16  H   NDX     0     -52.685 -21.171  44.180  0.00  0.00     0.167 HD
ENDBRANCH  13  15
ENDBRANCH   7  13
BRANCH   2  17
HETATM   17  C   NDX     0     -47.901 -22.232  47.585  0.00  0.00     0.125 C 
HETATM   18  C   NDX     0     -47.903 -20.739  47.866  0.00  0.00     0.027 C 
ENDBRANCH   2  17
TORSDOF 3
ENDMDL
