MODEL 1
REMARK VINA RESULT:      -6.3      0.000      0.000
REMARK  3 active torsions:
REMARK  status: ('A' for Active; 'I' for Inactive)
REMARK    1  A    between atoms: O_2  and  C_16 
REMARK    2  A    between atoms: N_4  and  C_8 
REMARK    3  A    between atoms: C_10  and  C_16 
ROOT
HETATM    1  O   NDX     0       8.764   1.037   5.377  0.00  0.00    -0.286 OA
HETATM    2  N   NDX     0      10.915   2.369   8.560  0.00  0.00    -0.340 N 
HETATM    3  N   NDX     0      11.664   4.292   7.296  0.00  0.00    -0.235 NA
HETATM    4  C   NDX     0      10.942   3.141   7.369  0.00  0.00     0.144 A 
HETATM    5  C   NDX     0      10.204   2.695   6.260  0.00  0.00     0.061 A 
HETATM    6  C   NDX     0      10.176   1.206   8.616  0.00  0.00     0.115 A 
HETATM    7  C   NDX     0       9.443   0.698   7.619  0.00  0.00     0.104 A 
HETATM    8  C   NDX     0       9.414   1.440   6.334  0.00  0.00     0.204 A 
HETATM    9  C   NDX     0      10.213   3.436   5.075  0.00  0.00     0.021 A 
HETATM   10  C   NDX     0      11.654   4.987   6.137  0.00  0.00     0.033 A 
HETATM   11  C   NDX     0      10.952   4.607   5.010  0.00  0.00     0.028 A 
HETATM   12  C   NDX     0      12.462   6.242   6.106  0.00  0.00     0.070 C 
ENDROOT
BRANCH   7  13
HETATM   13  C   NDX     0       8.719  -0.553   7.850  0.00  0.00     0.181 C 
HETATM   14  O   NDX     0       9.249  -1.654   7.783  0.00  0.00    -0.646 OA
BRANCH  13  15
HETATM   15  O   NDX     0       7.431  -0.293   8.140  0.00  0.00    -0.773 OA
HETATM   16  H   NDX     0       6.877  -1.102   8.122  0.00  0.00     0.167 HD
ENDBRANCH  13  15
ENDBRANCH   7  13
BRANCH   2  17
HETATM   17  C   NDX     0      11.697   2.879   9.679  0.00  0.00     0.125 C 
HETATM   18  C   NDX     0      10.830   3.682  10.634  0.00  0.00     0.027 C 
ENDBRANCH   2  17
TORSDOF 3
ENDMDL
