MODEL 1
REMARK VINA RESULT:      -4.6      0.000      0.000
REMARK  3 active torsions:
REMARK  status: ('A' for Active; 'I' for Inactive)
REMARK    1  A    between atoms: O_2  and  C_16 
REMARK    2  A    between atoms: N_4  and  C_8 
REMARK    3  A    between atoms: C_10  and  C_16 
ROOT
HETATM    1  O   NDX     0      21.940   2.773 -56.680  0.00  0.00    -0.286 OA
HETATM    2  N   NDX     0      18.241   1.197 -57.288  0.00  0.00    -0.340 N 
HETATM    3  N   NDX     0      17.651   3.046 -58.733  0.00  0.00    -0.235 NA
HETATM    4  C   NDX     0      18.558   2.421 -57.934  0.00  0.00     0.144 A 
HETATM    5  C   NDX     0      19.831   2.980 -57.735  0.00  0.00     0.061 A 
HETATM    6  C   NDX     0      19.174   0.577 -56.482  0.00  0.00     0.115 A 
HETATM    7  C   NDX     0      20.408   1.026 -56.229  0.00  0.00     0.104 A 
HETATM    8  C   NDX     0      20.825   2.301 -56.864  0.00  0.00     0.204 A 
HETATM    9  C   NDX     0      20.169   4.183 -58.360  0.00  0.00     0.021 A 
HETATM   10  C   NDX     0      18.006   4.209 -59.324  0.00  0.00     0.033 A 
HETATM   11  C   NDX     0      19.239   4.813 -59.172  0.00  0.00     0.028 A 
HETATM   12  C   NDX     0      16.978   4.857 -60.191  0.00  0.00     0.070 C 
ENDROOT
BRANCH   7  13
HETATM   13  C   NDX     0      21.271   0.240 -55.346  0.00  0.00     0.181 C 
HETATM   14  O   NDX     0      22.075  -0.586 -55.759  0.00  0.00    -0.646 OA
BRANCH  13  15
HETATM   15  O   NDX     0      21.041   0.571 -54.062  0.00  0.00    -0.773 OA
HETATM   16  H   NDX     0      20.128   0.903 -53.924  0.00  0.00     0.167 HD
ENDBRANCH  13  15
ENDBRANCH   7  13
BRANCH   2  17
HETATM   17  C   NDX     0      16.907   0.664 -57.531  0.00  0.00     0.125 C 
HETATM   18  C   NDX     0      16.974  -0.683 -58.231  0.00  0.00     0.027 C 
ENDBRANCH   2  17
TORSDOF 3
ENDMDL
