@<TRIPOS>MOLECULE
*****
 59 62 0 0 0
SMALL
GASTEIGER

@<TRIPOS>ATOM
      1  N         12.6863   20.0798  -17.4294 N.am    1  MEZ1       -0.2836
      2  N         10.8546   20.5181  -18.7721 N.am    1  MEZ1       -0.2016
      3  N         10.4106   22.0135  -20.3505 N.am    1  MEZ1       -0.1529
      4  N         13.1420   16.9524  -16.2573 N.am    1  MEZ1       -0.2999
      5  N         14.4164   14.6116  -15.2528 N.am    1  MEZ1       -0.2708
      6  CA        13.5025   19.3286  -16.4676 C.3     1  MEZ1        0.1261
      7  CA        13.8189   15.6463  -16.5344 C.3     1  MEZ1        0.1277
      8  CA        14.7890   14.1381  -13.9096 C.3     1  MEZ1        0.1379
      9  C         11.4229   19.7634  -17.7886 C.2     1  MEZ1        0.3109
     10  C          9.4790   20.2204  -19.1845 C.3     1  MEZ1        0.0798
     11  C         11.3504   21.5648  -19.4883 C.2     1  MEZ1        0.3320
     12  C          9.1636   21.2692  -20.2473 C.3     1  MEZ1        0.0931
     13  C          9.2614   23.2644  -22.6102 C.3     1  MEZ1        0.0739
     14  C         13.7924   17.9214  -16.9622 C.2     1  MEZ1        0.2386
     15  C         15.2123   15.7229  -15.8479 C.3     1  MEZ1        0.1005
     16  C         16.2150   14.6591  -13.6186 C.3     1  MEZ1        0.0417
     17  C         16.4377   14.8286  -12.0989 C.3     1  MEZ1       -0.0484
     18  C         17.3094   13.7216  -14.1894 C.3     1  MEZ1       -0.0484
     19  C         13.2223   14.4490  -15.8390 C.2     1  MEZ1        0.2402
     20  C         14.5850   12.6439  -13.6773 C.2     1  MEZ1        0.3269
     21  C         14.7994   20.0423  -16.1035 C.ar    1  MEZ1       -0.0184
     22  C         15.5083   20.7962  -17.0455 C.ar    1  MEZ1       -0.0563
     23  C         16.6888   21.4432  -16.6845 C.ar    1  MEZ1       -0.0614
     24  C         17.1758   21.3339  -15.3840 C.ar    1  MEZ1       -0.0617
     25  C         16.4822   20.5748  -14.4446 C.ar    1  MEZ1       -0.0614
     26  C         15.2985   19.9327  -14.8033 C.ar    1  MEZ1       -0.0563
     27  O         10.8160   18.8621  -17.2403 O.2     1  MEZ1       -0.2521
     28  O         12.4562   22.0578  -19.3709 O.2     1  MEZ1       -0.2503
     29  O         10.3405   24.5200  -20.6023 O.2     1  MEZ1       -0.1551
     30  O         11.8344   23.2291  -22.0896 O.2     1  MEZ1       -0.1551
     31  O         14.4333   17.7356  -17.9828 O.2     1  MEZ1       -0.2734
     32  O         12.2114   14.1605  -15.2302 O.2     1  MEZ1       -0.2734
     33  O         14.7798   11.8892  -14.7274 O.3     1  MEZ1       -0.4793
     34  OXT       14.3359   12.1689  -12.5892 O.2     1  MEZ1       -0.2489
     35  H01       13.1462   20.8337  -17.9177 H       1  MEZ1        0.1513
     36  H02       12.6705   17.1475  -15.3880 H       1  MEZ1        0.1496
     37  H03       12.8991   19.2308  -15.5599 H       1  MEZ1        0.0646
     38  H04       13.9023   15.4528  -17.6136 H       1  MEZ1        0.0622
     39  H05       14.0970   14.6289  -13.2187 H       1  MEZ1        0.0631
     40  H06        9.4267   19.2093  -19.5978 H       1  MEZ1        0.0545
     41  H07        8.3654   21.9373  -19.9133 H       1  MEZ1        0.0559
     42  H08        8.3033   23.3209  -22.0877 H       1  MEZ1        0.0482
     43  H09        9.3614   24.1052  -23.3012 H       1  MEZ1        0.0482
     44  H10        9.3481   22.3190  -23.1514 H       1  MEZ1        0.0482
     45  H11       15.8345   15.2817  -16.6413 H       1  MEZ1        0.0640
     46  H12       17.4263   15.2495  -11.9007 H       1  MEZ1        0.0244
     47  H13       15.6923   15.5035  -11.6717 H       1  MEZ1        0.0244
     48  H14       16.3663   13.8688  -11.5819 H       1  MEZ1        0.0244
     49  H15       18.2968   14.1749  -14.0754 H       1  MEZ1        0.0244
     50  H16       17.3220   12.7613  -13.6684 H       1  MEZ1        0.0244
     51  H17       17.1485   13.5313  -15.2532 H       1  MEZ1        0.0244
     52  H18       15.1477   20.8841  -18.0678 H       1  MEZ1        0.0621
     53  H19       17.2310   22.0327  -17.4198 H       1  MEZ1        0.0618
     54  H20       18.0975   21.8381  -15.1037 H       1  MEZ1        0.0618
     55  H21       16.8641   20.4838  -13.4306 H       1  MEZ1        0.0618
     56  H22       14.7660   19.3411  -14.0622 H       1  MEZ1        0.0621
     57  H23       14.6172   10.9748  -14.4364 H       1  MEZ1        0.2951
     58  S         10.5729   23.3607  -21.4166 S.O2    1  MEZ1        0.0462
     59  S         16.2808   16.2631  -14.4649 S.3     1  MEZ1       -0.1273
@<TRIPOS>BOND
     1    43    13    1
     2    13    44    1
     3    13    42    1
     4    13    58    1
     5    30    58    2
     6    58     3    1
     7    58    29    2
     8    41    12    1
     9     3    12    1
    10     3    11   am
    11    12    10    1
    12    11    28    2
    13    11     2   am
    14    10    40    1
    15    10     2    1
    16     2     9   am
    17    31    14    2
    18    52    22    1
    19    35     1    1
    20     9     1   am
    21     9    27    2
    22    38     7    1
    23     1     6    1
    24    53    23    1
    25    14     6    1
    26    14     4   am
    27    22    23   ar
    28    22    21   ar
    29    45    15    1
    30    23    24   ar
    31     6    21    1
    32     6    37    1
    33     7     4    1
    34     7    15    1
    35     7    19    1
    36     4    36    1
    37    21    26   ar
    38    15     5    1
    39    15    59    1
    40    19     5   am
    41    19    32    2
    42    24    54    1
    43    24    25   ar
    44     5     8    1
    45    51    18    1
    46    59    16    1
    47    57    33    1
    48    26    25   ar
    49    26    56    1
    50    33    20    1
    51    25    55    1
    52    18    50    1
    53    18    16    1
    54    18    49    1
    55     8    16    1
    56     8    20    1
    57     8    39    1
    58    16    17    1
    59    20    34    2
    60    46    17    1
    61    17    47    1
    62    17    48    1
