MODEL 1
REMARK VINA RESULT:      -3.8      0.000      0.000
REMARK  0 active torsions:
REMARK  status: ('A' for Active; 'I' for Inactive)
ROOT
HETATM    1  O   PYC A   1      64.124  85.599  25.670  1.00  0.00    -0.285 OA
HETATM    2  N   PYC A   1      68.343  84.068  23.739  1.00  0.00    -0.323 N 
HETATM    3  N   PYC A   1      65.782  83.500  24.931  1.00  0.00    -0.239 NA
HETATM    4  C   PYC A   1      67.494  85.119  24.116  1.00  0.00     0.081 A 
HETATM    5  C   PYC A   1      67.921  82.720  23.953  1.00  0.00     0.078 A 
HETATM    6  C   PYC A   1      66.168  84.724  24.736  1.00  0.00     0.136 A 
HETATM    7  C   PYC A   1      66.656  82.473  24.542  1.00  0.00     0.097 A 
HETATM    8  C   PYC A   1      69.658  84.250  23.127  1.00  0.00     0.131 C 
HETATM    9  C   PYC A   1      67.724  86.439  23.992  1.00  0.00     0.019 A 
HETATM   10  C   PYC A   1      68.705  81.602  23.605  1.00  0.00     0.019 A 
HETATM   11  C   PYC A   1      65.211  85.836  25.163  1.00  0.00     0.214 A 
HETATM   12  C   PYC A   1      66.221  81.159  24.762  1.00  0.00     0.021 A 
HETATM   13  C   PYC A   1      66.818  87.481  24.396  1.00  0.00     0.005 A 
HETATM   14  C   PYC A   1      68.259  80.295  23.832  1.00  0.00     0.002 A 
HETATM   15  C   PYC A   1      65.631  87.231  24.949  1.00  0.00     0.044 A 
HETATM   16  C   PYC A   1      67.017  80.073  24.410  1.00  0.00     0.002 A 
ENDROOT
TORSDOF 0
ENDMDL
