MODEL 1
REMARK VINA RESULT:      -4.8      0.000      0.000
REMARK  0 active torsions:
REMARK  status: ('A' for Active; 'I' for Inactive)
ROOT
HETATM    1  O   PYC A   1      66.791  80.424  28.768  1.00  0.00    -0.285 OA
HETATM    2  N   PYC A   1      66.889  80.022  23.899  1.00  0.00    -0.323 N 
HETATM    3  N   PYC A   1      66.292  78.916  26.492  1.00  0.00    -0.239 NA
HETATM    4  C   PYC A   1      67.136  80.773  25.058  1.00  0.00     0.081 A 
HETATM    5  C   PYC A   1      66.342  78.709  24.023  1.00  0.00     0.078 A 
HETATM    6  C   PYC A   1      66.791  80.109  26.376  1.00  0.00     0.136 A 
HETATM    7  C   PYC A   1      66.059  78.192  25.312  1.00  0.00     0.097 A 
HETATM    8  C   PYC A   1      67.156  80.491  22.541  1.00  0.00     0.131 C 
HETATM    9  C   PYC A   1      67.645  82.016  25.132  1.00  0.00     0.019 A 
HETATM   10  C   PYC A   1      66.060  77.883  22.916  1.00  0.00     0.019 A 
HETATM   11  C   PYC A   1      67.043  80.890  27.665  1.00  0.00     0.214 A 
HETATM   12  C   PYC A   1      65.521  76.906  25.459  1.00  0.00     0.021 A 
HETATM   13  C   PYC A   1      67.879  82.746  26.350  1.00  0.00     0.005 A 
HETATM   14  C   PYC A   1      65.524  76.600  23.077  1.00  0.00     0.002 A 
HETATM   15  C   PYC A   1      67.608  82.246  27.555  1.00  0.00     0.044 A 
HETATM   16  C   PYC A   1      65.254  76.111  24.348  1.00  0.00     0.002 A 
ENDROOT
TORSDOF 0
ENDMDL
