MODEL 1
REMARK VINA RESULT:      -5.9      0.000      0.000
REMARK  0 active torsions:
REMARK  status: ('A' for Active; 'I' for Inactive)
ROOT
HETATM    1  O   PYC A   1      53.864  73.414  34.384  1.00  0.00    -0.285 OA
HETATM    2  N   PYC A   1      56.814  76.809  32.475  1.00  0.00    -0.323 N 
HETATM    3  N   PYC A   1      54.424  75.206  32.340  1.00  0.00    -0.239 NA
HETATM    4  C   PYC A   1      56.518  75.899  33.502  1.00  0.00     0.081 A 
HETATM    5  C   PYC A   1      55.918  76.927  31.370  1.00  0.00     0.078 A 
HETATM    6  C   PYC A   1      55.241  75.099  33.345  1.00  0.00     0.136 A 
HETATM    7  C   PYC A   1      54.751  76.125  31.331  1.00  0.00     0.097 A 
HETATM    8  C   PYC A   1      57.997  77.667  32.450  1.00  0.00     0.131 C 
HETATM    9  C   PYC A   1      57.241  75.656  34.610  1.00  0.00     0.019 A 
HETATM   10  C   PYC A   1      56.132  77.814  30.295  1.00  0.00     0.019 A 
HETATM   11  C   PYC A   1      54.878  74.096  34.439  1.00  0.00     0.214 A 
HETATM   12  C   PYC A   1      53.857  76.224  30.256  1.00  0.00     0.021 A 
HETATM   13  C   PYC A   1      56.894  74.709  35.636  1.00  0.00     0.005 A 
HETATM   14  C   PYC A   1      55.232  77.901  29.227  1.00  0.00     0.002 A 
HETATM   15  C   PYC A   1      55.791  73.961  35.585  1.00  0.00     0.044 A 
HETATM   16  C   PYC A   1      54.094  77.107  29.207  1.00  0.00     0.002 A 
ENDROOT
TORSDOF 0
ENDMDL
