MODEL 1
REMARK VINA RESULT:      -6.4      0.000      0.000
REMARK  0 active torsions:
REMARK  status: ('A' for Active; 'I' for Inactive)
ROOT
HETATM    1  O   PYC A   1      53.747  74.070  34.861  1.00  0.00    -0.285 OA
HETATM    2  N   PYC A   1      56.441  76.802  31.836  1.00  0.00    -0.323 N 
HETATM    3  N   PYC A   1      53.981  75.436  32.456  1.00  0.00    -0.239 NA
HETATM    4  C   PYC A   1      56.308  76.108  33.048  1.00  0.00     0.081 A 
HETATM    5  C   PYC A   1      55.346  76.820  30.920  1.00  0.00     0.078 A 
HETATM    6  C   PYC A   1      54.979  75.419  33.288  1.00  0.00     0.136 A 
HETATM    7  C   PYC A   1      54.149  76.138  31.254  1.00  0.00     0.097 A 
HETATM    8  C   PYC A   1      57.644  77.526  31.428  1.00  0.00     0.131 C 
HETATM    9  C   PYC A   1      57.228  75.984  34.022  1.00  0.00     0.019 A 
HETATM   10  C   PYC A   1      55.387  77.491  29.681  1.00  0.00     0.019 A 
HETATM   11  C   PYC A   1      54.789  74.651  34.595  1.00  0.00     0.214 A 
HETATM   12  C   PYC A   1      53.060  76.143  30.370  1.00  0.00     0.021 A 
HETATM   13  C   PYC A   1      57.042  75.258  35.251  1.00  0.00     0.005 A 
HETATM   14  C   PYC A   1      54.293  77.486  28.808  1.00  0.00     0.002 A 
HETATM   15  C   PYC A   1      55.910  74.622  35.550  1.00  0.00     0.044 A 
HETATM   16  C   PYC A   1      53.130  76.812  29.152  1.00  0.00     0.002 A 
ENDROOT
TORSDOF 0
ENDMDL
