MODEL 1
REMARK VINA RESULT:      -4.9      0.000      0.000
REMARK  0 active torsions:
REMARK  status: ('A' for Active; 'I' for Inactive)
ROOT
HETATM    1  O   PYC A   1      66.742  80.317  28.665  1.00  0.00    -0.285 OA
HETATM    2  N   PYC A   1      66.822  79.851  23.802  1.00  0.00    -0.323 N 
HETATM    3  N   PYC A   1      66.214  78.788  26.410  1.00  0.00    -0.239 NA
HETATM    4  C   PYC A   1      67.083  80.613  24.950  1.00  0.00     0.081 A 
HETATM    5  C   PYC A   1      66.254  78.548  23.944  1.00  0.00     0.078 A 
HETATM    6  C   PYC A   1      66.731  79.972  26.278  1.00  0.00     0.136 A 
HETATM    7  C   PYC A   1      65.966  78.053  25.240  1.00  0.00     0.097 A 
HETATM    8  C   PYC A   1      67.092  80.298  22.437  1.00  0.00     0.131 C 
HETATM    9  C   PYC A   1      67.611  81.849  25.007  1.00  0.00     0.019 A 
HETATM   10  C   PYC A   1      65.957  77.712  22.849  1.00  0.00     0.019 A 
HETATM   11  C   PYC A   1      66.998  80.765  27.556  1.00  0.00     0.214 A 
HETATM   12  C   PYC A   1      65.409  76.777  25.405  1.00  0.00     0.021 A 
HETATM   13  C   PYC A   1      67.861  82.590  26.215  1.00  0.00     0.005 A 
HETATM   14  C   PYC A   1      65.402  76.440  23.028  1.00  0.00     0.002 A 
HETATM   15  C   PYC A   1      67.584  82.110  27.427  1.00  0.00     0.044 A 
HETATM   16  C   PYC A   1      65.127  75.972  24.305  1.00  0.00     0.002 A 
ENDROOT
TORSDOF 0
ENDMDL
