MODEL 1
REMARK VINA RESULT:      -5.9      0.000      0.000
REMARK  0 active torsions:
REMARK  status: ('A' for Active; 'I' for Inactive)
ROOT
HETATM    1  O   PYC A   1      61.331  79.052  42.004  1.00  0.00    -0.285 OA
HETATM    2  N   PYC A   1      66.194  78.808  41.603  1.00  0.00    -0.323 N 
HETATM    3  N   PYC A   1      63.570  78.542  40.444  1.00  0.00    -0.239 NA
HETATM    4  C   PYC A   1      65.054  79.063  42.379  1.00  0.00     0.081 A 
HETATM    5  C   PYC A   1      66.036  78.417  40.239  1.00  0.00     0.078 A 
HETATM    6  C   PYC A   1      63.716  78.897  41.685  1.00  0.00     0.136 A 
HETATM    7  C   PYC A   1      64.731  78.295  39.697  1.00  0.00     0.097 A 
HETATM    8  C   PYC A   1      67.566  78.915  42.094  1.00  0.00     0.131 C 
HETATM    9  C   PYC A   1      65.013  79.438  43.670  1.00  0.00     0.019 A 
HETATM   10  C   PYC A   1      67.121  78.141  39.383  1.00  0.00     0.019 A 
HETATM   11  C   PYC A   1      62.446  79.164  42.492  1.00  0.00     0.214 A 
HETATM   12  C   PYC A   1      64.551  77.912  38.361  1.00  0.00     0.021 A 
HETATM   13  C   PYC A   1      63.813  79.688  44.424  1.00  0.00     0.005 A 
HETATM   14  C   PYC A   1      66.926  77.759  38.051  1.00  0.00     0.002 A 
HETATM   15  C   PYC A   1      62.593  79.568  43.901  1.00  0.00     0.044 A 
HETATM   16  C   PYC A   1      65.642  77.645  37.539  1.00  0.00     0.002 A 
ENDROOT
TORSDOF 0
ENDMDL
