MODEL 1
REMARK VINA RESULT:      -5.6      0.000      0.000
REMARK  0 active torsions:
REMARK  status: ('A' for Active; 'I' for Inactive)
ROOT
HETATM    1  O   PYC A   1      54.097  73.367  34.463  1.00  0.00    -0.285 OA
HETATM    2  N   PYC A   1      57.018  76.833  32.638  1.00  0.00    -0.323 N 
HETATM    3  N   PYC A   1      54.654  75.197  32.451  1.00  0.00    -0.239 NA
HETATM    4  C   PYC A   1      56.724  75.905  33.647  1.00  0.00     0.081 A 
HETATM    5  C   PYC A   1      56.134  76.954  31.523  1.00  0.00     0.078 A 
HETATM    6  C   PYC A   1      55.460  75.088  33.464  1.00  0.00     0.136 A 
HETATM    7  C   PYC A   1      54.979  76.134  31.459  1.00  0.00     0.097 A 
HETATM    8  C   PYC A   1      58.188  77.709  32.638  1.00  0.00     0.131 C 
HETATM    9  C   PYC A   1      57.437  75.657  34.761  1.00  0.00     0.019 A 
HETATM   10  C   PYC A   1      56.347  77.858  30.463  1.00  0.00     0.019 A 
HETATM   11  C   PYC A   1      55.099  74.064  34.539  1.00  0.00     0.214 A 
HETATM   12  C   PYC A   1      54.097  76.235  30.375  1.00  0.00     0.021 A 
HETATM   13  C   PYC A   1      57.092  74.690  35.770  1.00  0.00     0.005 A 
HETATM   14  C   PYC A   1      55.458  77.947  29.386  1.00  0.00     0.002 A 
HETATM   15  C   PYC A   1      56.001  73.927  35.695  1.00  0.00     0.044 A 
HETATM   16  C   PYC A   1      54.333  77.136  29.341  1.00  0.00     0.002 A 
ENDROOT
TORSDOF 0
ENDMDL
