MODEL 1
REMARK VINA RESULT:      -4.6      0.000      0.000
REMARK  0 active torsions:
REMARK  status: ('A' for Active; 'I' for Inactive)
ROOT
HETATM    1  O   PYC A   1      56.711  74.897  36.155  1.00  0.00    -0.285 OA
HETATM    2  N   PYC A   1      56.925  76.504  31.545  1.00  0.00    -0.323 N 
HETATM    3  N   PYC A   1      57.974  76.444  34.228  1.00  0.00    -0.239 NA
HETATM    4  C   PYC A   1      56.297  75.726  32.529  1.00  0.00     0.081 A 
HETATM    5  C   PYC A   1      58.085  77.262  31.892  1.00  0.00     0.078 A 
HETATM    6  C   PYC A   1      56.919  75.757  33.911  1.00  0.00     0.136 A 
HETATM    7  C   PYC A   1      58.577  77.212  33.220  1.00  0.00     0.097 A 
HETATM    8  C   PYC A   1      56.473  76.601  30.159  1.00  0.00     0.131 C 
HETATM    9  C   PYC A   1      55.204  74.955  32.385  1.00  0.00     0.019 A 
HETATM   10  C   PYC A   1      58.781  78.070  30.971  1.00  0.00     0.019 A 
HETATM   11  C   PYC A   1      56.269  74.924  35.015  1.00  0.00     0.214 A 
HETATM   12  C   PYC A   1      59.713  77.948  33.583  1.00  0.00     0.021 A 
HETATM   13  C   PYC A   1      54.596  74.173  33.429  1.00  0.00     0.005 A 
HETATM   14  C   PYC A   1      59.915  78.800  31.348  1.00  0.00     0.002 A 
HETATM   15  C   PYC A   1      55.071  74.137  34.674  1.00  0.00     0.044 A 
HETATM   16  C   PYC A   1      60.381  78.739  32.653  1.00  0.00     0.002 A 
ENDROOT
TORSDOF 0
ENDMDL
