MODEL 1
REMARK VINA RESULT:      -5.9      0.000      0.000
REMARK  0 active torsions:
REMARK  status: ('A' for Active; 'I' for Inactive)
ROOT
HETATM    1  O   PYC A   1      69.163  78.194  43.345  1.00  0.00    -0.285 OA
HETATM    2  N   PYC A   1      64.686  78.923  41.528  1.00  0.00    -0.323 N 
HETATM    3  N   PYC A   1      67.445  78.176  41.165  1.00  0.00    -0.239 NA
HETATM    4  C   PYC A   1      65.566  78.927  42.621  1.00  0.00     0.081 A 
HETATM    5  C   PYC A   1      65.176  78.546  40.241  1.00  0.00     0.078 A 
HETATM    6  C   PYC A   1      66.998  78.520  42.335  1.00  0.00     0.136 A 
HETATM    7  C   PYC A   1      66.539  78.183  40.094  1.00  0.00     0.097 A 
HETATM    8  C   PYC A   1      63.272  79.283  41.607  1.00  0.00     0.131 C 
HETATM    9  C   PYC A   1      65.283  79.252  43.896  1.00  0.00     0.019 A 
HETATM   10  C   PYC A   1      64.367  78.511  39.087  1.00  0.00     0.019 A 
HETATM   11  C   PYC A   1      67.992  78.510  43.495  1.00  0.00     0.214 A 
HETATM   12  C   PYC A   1      67.042  77.809  38.841  1.00  0.00     0.021 A 
HETATM   13  C   PYC A   1      66.224  79.240  44.984  1.00  0.00     0.005 A 
HETATM   14  C   PYC A   1      64.883  78.136  37.842  1.00  0.00     0.002 A 
HETATM   15  C   PYC A   1      67.503  78.898  44.829  1.00  0.00     0.044 A 
HETATM   16  C   PYC A   1      66.220  77.785  37.717  1.00  0.00     0.002 A 
ENDROOT
TORSDOF 0
ENDMDL
