MODEL 1
REMARK VINA RESULT:      -4.2      0.000      0.000
REMARK  0 active torsions:
REMARK  status: ('A' for Active; 'I' for Inactive)
ROOT
HETATM    1  O   PYC A   1      57.037  75.059  36.218  1.00  0.00    -0.285 OA
HETATM    2  N   PYC A   1      57.164  76.613  31.587  1.00  0.00    -0.323 N 
HETATM    3  N   PYC A   1      58.266  76.582  34.250  1.00  0.00    -0.239 NA
HETATM    4  C   PYC A   1      56.554  75.847  32.592  1.00  0.00     0.081 A 
HETATM    5  C   PYC A   1      58.332  77.372  31.902  1.00  0.00     0.078 A 
HETATM    6  C   PYC A   1      57.203  75.893  33.961  1.00  0.00     0.136 A 
HETATM    7  C   PYC A   1      58.850  77.337  33.221  1.00  0.00     0.097 A 
HETATM    8  C   PYC A   1      56.685  76.695  30.209  1.00  0.00     0.131 C 
HETATM    9  C   PYC A   1      55.457  75.077  32.479  1.00  0.00     0.019 A 
HETATM   10  C   PYC A   1      59.012  78.169  30.959  1.00  0.00     0.019 A 
HETATM   11  C   PYC A   1      56.573  75.074  35.087  1.00  0.00     0.214 A 
HETATM   12  C   PYC A   1      59.995  78.074  33.553  1.00  0.00     0.021 A 
HETATM   13  C   PYC A   1      54.868  74.309  33.543  1.00  0.00     0.005 A 
HETATM   14  C   PYC A   1      60.154  78.900  31.305  1.00  0.00     0.002 A 
HETATM   15  C   PYC A   1      55.367  74.286  34.779  1.00  0.00     0.044 A 
HETATM   16  C   PYC A   1      60.646  78.853  32.602  1.00  0.00     0.002 A 
ENDROOT
TORSDOF 0
ENDMDL
