MODEL 1
REMARK VINA RESULT:    -6.510      0.000      0.000
REMARK INTER + INTRA:          -8.381
REMARK INTER:                  -8.222
REMARK INTRA:                  -0.158
REMARK UNBOUND:                -0.158
REMARK  6 active torsions:
REMARK  status: ('A' for Active; 'I' for Inactive)
REMARK    1  A    between atoms: C3_3  and  N1_4 
REMARK    2  A    between atoms: C5_6  and  C17_22 
REMARK    3  A    between atoms: C6_7  and  O1_8 
REMARK    4  A    between atoms: C10_12  and  N2_15 
REMARK    5  A    between atoms: C17_22  and  O2_23 
REMARK    6  A    between atoms: C17_22  and  O3_24 
ROOT
HETATM    1  N1  CIP     1      28.459 -55.901 -10.880  1.00  0.00     0.099 N 
HETATM    2  C4  CIP     1      28.792 -57.078 -11.734  1.00  0.00     0.285 C 
HETATM    3  C5  CIP     1      30.102 -57.841 -11.362  1.00  0.00     0.098 C 
HETATM    4  C6  CIP     1      30.209 -58.153  -9.832  1.00  0.00     0.135 C 
HETATM    5  C7  CIP     1      29.113 -57.431  -9.018  1.00  0.00     0.051 C 
HETATM    6  C8  CIP     1      29.316 -57.549  -7.483  1.00  0.00     0.049 C 
HETATM    7  C9  CIP     1      29.841 -56.257  -6.842  1.00  0.00     0.204 C 
HETATM    8  C10 CIP     1      28.930 -55.011  -7.133  1.00  0.00     0.258 C 
HETATM    9  C11 CIP     1      28.180 -55.171  -8.497  1.00  0.00     0.075 C 
HETATM   10  C12 CIP     1      29.027 -55.966  -9.508  1.00  0.00     0.232 C 
HETATM   11  F1  CIP     1      30.002 -56.486  -5.487  1.00  0.00    -0.247 F 
ENDROOT
BRANCH   8  12
HETATM   12  N2  CIP     1      28.030 -54.720  -5.971  1.00  0.00     0.099 N 
HETATM   13  C13 CIP     1      28.491 -53.530  -5.198  1.00  0.00     0.302 C 
HETATM   14  C14 CIP     1      27.583 -52.304  -5.380  1.00  0.00     0.299 C 
HETATM   15  N3  CIP     1      26.206 -52.581  -4.944  1.00  0.00     0.086 N 
HETATM   16  C15 CIP     1      25.778 -53.970  -5.190  1.00  0.00     0.299 C 
HETATM   17  H13 CIP     1      25.566 -51.935  -5.465  1.00  0.00     0.315 HD
HETATM   18  C16 CIP     1      26.585 -54.640  -6.311  1.00  0.00     0.302 C 
ENDBRANCH   8  12
BRANCH   1  19
HETATM   19  C3  CIP     1      28.821 -54.638 -11.556  1.00  0.00     0.223 A 
HETATM   20  C1  CIP     1      27.641 -53.698 -11.767  1.00  0.00     0.038 A 
HETATM   21  C2  CIP     1      28.208 -54.468 -12.941  1.00  0.00     0.038 A 
ENDBRANCH   1  19
BRANCH   4  22
HETATM   22  O1  CIP     1      30.161 -59.541  -9.601  1.00  0.00    -0.395 OA
HETATM   23  H4  CIP     1      30.932 -59.951 -10.074  1.00  0.00     0.210 HD
ENDBRANCH   4  22
BRANCH   3  24
HETATM   24  C17 CIP     1      31.399 -57.201 -11.924  1.00  0.00     0.262 C 
BRANCH  24  25
HETATM   25  O2  CIP     1      32.462 -57.325 -11.010  1.00  0.00    -0.371 OA
HETATM   26  H12 CIP     1      32.485 -58.265 -10.697  1.00  0.00     0.212 HD
ENDBRANCH  24  25
BRANCH  24  27
HETATM   27  O3  CIP     1      31.744 -57.741 -13.172  1.00  0.00    -0.371 OA
HETATM   28  H18 CIP     1      32.611 -57.332 -13.427  1.00  0.00     0.212 HD
ENDBRANCH  24  27
ENDBRANCH   3  24
TORSDOF 6
ENDMDL
