MODEL 1
REMARK VINA RESULT:    -6.532      0.000      0.000
REMARK INTER + INTRA:         -14.317
REMARK INTER:                 -10.923
REMARK INTRA:                  -3.395
REMARK UNBOUND:                -3.395
REMARK  16 active torsions:
REMARK  status: ('A' for Active; 'I' for Inactive)
REMARK    1  A    between atoms: C3_3  and  C20_33 
REMARK    2  A    between atoms: C5_7  and  N2_10 
REMARK    3  A    between atoms: C6_8  and  O1_9 
REMARK    4  A    between atoms: N2_10  and  C7_11 
REMARK    5  A    between atoms: C7_11  and  O2_12 
REMARK    6  A    between atoms: C7_11  and  C8_13 
REMARK    7  A    between atoms: C8_13  and  C9_14 
REMARK    8  A    between atoms: C8_13  and  N3_20 
REMARK    9  A    between atoms: N3_20  and  C15_21 
REMARK   10  A    between atoms: C15_21  and  O3_22 
REMARK   11  A    between atoms: C15_21  and  N4_23 
REMARK   12  A    between atoms: C18_27  and  O4_28 
REMARK   13  A    between atoms: S2_29  and  O5_30 
REMARK   14  A    between atoms: S2_29  and  O6_31 
REMARK   15  A    between atoms: C20_33  and  O7_34 
REMARK   16  A    between atoms: C20_33  and  O8_35 
ROOT
HETATM    1  C8  MEZ     1     -27.512  -7.637  -5.913  1.00  0.00     0.288 C 
ENDROOT
BRANCH   1   2
HETATM    2  C7  MEZ     1     -27.075  -7.734  -7.417  1.00  0.00     0.388 C 
BRANCH   2   3
HETATM    3  N2  MEZ     1     -27.769  -6.744  -8.264  1.00  0.00     0.126 N 
HETATM    4  H7  MEZ     1     -28.804  -6.892  -8.223  1.00  0.00     0.320 HD
BRANCH   3   5
HETATM    5  C5  MEZ     1     -27.268  -6.660  -9.652  1.00  0.00     0.325 A 
HETATM    6  C4  MEZ     1     -28.098  -7.367 -10.733  1.00  0.00     0.326 A 
HETATM    7  N1  MEZ     1     -28.552  -6.107 -11.334  1.00  0.00     0.146 N 
HETATM    8  S1  MEZ     1     -29.499  -8.414 -10.204  1.00  0.00    -0.119 SA
HETATM    9  C3  MEZ     1     -30.021  -5.990 -11.171  1.00  0.00     0.299 C 
HETATM   10  C6  MEZ     1     -27.706  -5.380 -10.357  1.00  0.00     0.395 A 
HETATM   11  C2  MEZ     1     -30.624  -7.420 -11.216  1.00  0.00     0.039 C 
HETATM   12  C1  MEZ     1     -30.659  -8.027 -12.633  1.00  0.00     0.029 C 
HETATM   13  C21 MEZ     1     -32.024  -7.498 -10.580  1.00  0.00     0.029 C 
BRANCH   9  14
HETATM   14  C20 MEZ     1     -30.563  -5.018 -12.252  1.00  0.00     0.289 C 
BRANCH  14  15
HETATM   15  O7  MEZ     1     -29.538  -4.690 -13.155  1.00  0.00    -0.369 OA
HETATM   16  H18 MEZ     1     -29.456  -3.701 -13.143  1.00  0.00     0.212 HD
ENDBRANCH  14  15
BRANCH  14  17
HETATM   17  O8  MEZ     1     -31.079  -3.846 -11.677  1.00  0.00    -0.369 OA
HETATM   18  H22 MEZ     1     -31.529  -4.110 -10.831  1.00  0.00     0.212 HD
ENDBRANCH  14  17
ENDBRANCH   9  14
BRANCH  10  19
HETATM   19  O1  MEZ     1     -28.399  -4.488  -9.519  1.00  0.00    -0.366 OA
HETATM   20  H2  MEZ     1     -28.228  -3.579  -9.879  1.00  0.00     0.212 HD
ENDBRANCH  10  19
ENDBRANCH   3   5
ENDBRANCH   2   3
BRANCH   2  21
HETATM   21  O2  MEZ     1     -25.678  -7.628  -7.576  1.00  0.00    -0.366 OA
HETATM   22  H4  MEZ     1     -25.413  -8.172  -8.362  1.00  0.00     0.212 HD
ENDBRANCH   2  21
ENDBRANCH   1   2
BRANCH   1  23
HETATM   23  C9  MEZ     1     -26.380  -7.916  -4.872  1.00  0.00     0.023 C 
HETATM   24  C10 MEZ     1     -25.763  -6.650  -4.242  1.00  0.00     0.007 C 
HETATM   25  C11 MEZ     1     -24.464  -6.983  -3.479  1.00  0.00     0.000 C 
HETATM   26  C12 MEZ     1     -24.468  -8.391  -2.848  1.00  0.00     0.000 C 
HETATM   27  C13 MEZ     1     -25.889  -8.866  -2.516  1.00  0.00     0.000 C 
HETATM   28  C14 MEZ     1     -26.777  -8.945  -3.776  1.00  0.00     0.007 C 
ENDBRANCH   1  23
BRANCH   1  29
HETATM   29  N3  MEZ     1     -28.091  -6.305  -5.606  1.00  0.00     0.152 N 
HETATM   30  H14 MEZ     1     -28.250  -5.718  -6.458  1.00  0.00     0.322 HD
BRANCH  29  31
HETATM   31  C15 MEZ     1     -29.345  -6.383  -4.839  1.00  0.00     0.600 C 
BRANCH  31  32
HETATM   32  O3  MEZ     1     -30.165  -7.387  -5.387  1.00  0.00    -0.345 OA
HETATM   33  H12 MEZ     1     -30.976  -6.943  -5.747  1.00  0.00     0.214 HD
ENDBRANCH  31  32
BRANCH  31  34
HETATM   34  N4  MEZ     1     -30.049  -5.087  -4.928  1.00  0.00     0.198 N 
HETATM   35  C16 MEZ     1     -31.455  -5.174  -4.548  1.00  0.00     0.304 C 
HETATM   36  C17 MEZ     1     -32.135  -4.038  -5.283  1.00  0.00     0.168 C 
HETATM   37  N5  MEZ     1     -31.243  -3.626  -6.359  1.00  0.00    -0.280 N 
HETATM   38  C18 MEZ     1     -30.068  -4.485  -6.271  1.00  0.00     0.480 C 
HETATM   39  S2  MEZ     1     -31.930  -2.665  -7.164  1.00  0.00     0.045 S 
HETATM   40  C19 MEZ     1     -30.410  -1.046  -6.433  1.00  0.00     0.150 C 
BRANCH  38  41
HETATM   41  O4  MEZ     1     -30.155  -5.460  -7.283  1.00  0.00    -0.352 OA
HETATM   42  H14 MEZ     1     -30.868  -6.095  -7.014  1.00  0.00     0.214 HD
ENDBRANCH  38  41
BRANCH  39  43
HETATM   43  O5  MEZ     1     -30.362  -2.647  -9.259  1.00  0.00    -0.312 OA
HETATM   44  H15 MEZ     1     -29.468  -2.344  -8.960  1.00  0.00     0.230 HD
ENDBRANCH  39  43
BRANCH  39  45
HETATM   45  O6  MEZ     1     -32.421  -3.435  -8.679  1.00  0.00    -0.312 OA
HETATM   46  H16 MEZ     1     -33.363  -3.396  -8.979  1.00  0.00     0.230 HD
ENDBRANCH  39  45
ENDBRANCH  31  34
ENDBRANCH  29  31
ENDBRANCH   1  29
TORSDOF 16
ENDMDL
