MODEL 1
REMARK VINA RESULT:    -6.472      0.000      0.000
REMARK INTER + INTRA:         -12.685
REMARK INTER:                 -10.634
REMARK INTRA:                  -2.051
REMARK UNBOUND:                -2.051
REMARK  16 active torsions:
REMARK  status: ('A' for Active; 'I' for Inactive)
REMARK    1  A    between atoms: C2_2  and  N5_32 
REMARK    2  A    between atoms: C3_3  and  O7_21 
REMARK    3  A    between atoms: C4_4  and  O6_20 
REMARK    4  A    between atoms: C5_5  and  O1_8 
REMARK    5  A    between atoms: C6_6  and  N1_7 
REMARK    6  A    between atoms: O1_8  and  C7_9 
REMARK    7  A    between atoms: C8_10  and  O5_19 
REMARK    8  A    between atoms: C9_11  and  N2_18 
REMARK    9  A    between atoms: C10_12  and  O4_17 
REMARK   10  A    between atoms: C11_13  and  C12_15 
REMARK   11  A    between atoms: C12_15  and  O3_16 
REMARK   12  A    between atoms: O7_21  and  C13_22 
REMARK   13  A    between atoms: C14_23  and  N4_31 
REMARK   14  A    between atoms: C16_25  and  O9_30 
REMARK   15  A    between atoms: C17_26  and  C18_28 
REMARK   16  A    between atoms: C18_28  and  N3_29 
ROOT
HETATM    1  C1  TOB     1      26.667 -54.760  -9.520  1.00  0.00     0.076 C 
HETATM    2  C2  TOB     1      27.529 -54.860  -8.240  1.00  0.00     0.251 C 
HETATM    3  C3  TOB     1      29.051 -54.927  -8.533  1.00  0.00     0.189 C 
HETATM    4  C4  TOB     1      29.511 -53.839  -9.528  1.00  0.00     0.180 C 
HETATM    5  C5  TOB     1      28.690 -53.851 -10.849  1.00  0.00     0.189 C 
HETATM    6  C6  TOB     1      27.166 -53.773 -10.605  1.00  0.00     0.251 C 
ENDROOT
BRANCH   5   7
HETATM    7  O1  TOB     1      28.953 -55.037 -11.587  1.00  0.00    -0.348 OA
BRANCH   7   8
HETATM    8  C7  TOB     1      30.060 -54.910 -12.469  1.00  0.00     0.291 C 
HETATM    9  C8  TOB     1      29.560 -54.365 -13.830  1.00  0.00     0.208 C 
HETATM   10  C9  TOB     1      30.551 -54.688 -14.985  1.00  0.00     0.282 C 
HETATM   11  C10 TOB     1      31.951 -55.001 -14.429  1.00  0.00     0.184 C 
HETATM   12  C11 TOB     1      31.841 -56.170 -13.408  1.00  0.00     0.179 C 
HETATM   13  O2  TOB     1      30.639 -56.191 -12.640  1.00  0.00    -0.349 OA
BRANCH   9  14
HETATM   14  O5  TOB     1      28.278 -54.856 -14.142  1.00  0.00    -0.388 OA
HETATM   15  H21 TOB     1      28.374 -55.816 -14.377  1.00  0.00     0.210 HD
ENDBRANCH   9  14
BRANCH  10  16
HETATM   16  N2  TOB     1      30.617 -53.589 -15.952  1.00  0.00     0.088 N 
HETATM   17  H19 TOB     1      29.766 -53.628 -16.559  1.00  0.00     0.313 HD
HETATM   18  H20 TOB     1      30.600 -52.675 -15.443  1.00  0.00     0.313 HD
ENDBRANCH  10  16
BRANCH  11  19
HETATM   19  O4  TOB     1      32.817 -55.376 -15.471  1.00  0.00    -0.391 OA
HETATM   20  H18 TOB     1      32.844 -56.368 -15.485  1.00  0.00     0.210 HD
ENDBRANCH  11  19
BRANCH  12  21
HETATM   21  C12 TOB     1      33.068 -56.274 -12.488  1.00  0.00     0.198 C 
BRANCH  21  22
HETATM   22  O3  TOB     1      34.240 -56.509 -13.222  1.00  0.00    -0.398 OA
HETATM   23  H17 TOB     1      34.879 -56.963 -12.613  1.00  0.00     0.209 HD
ENDBRANCH  21  22
ENDBRANCH  12  21
ENDBRANCH   7   8
ENDBRANCH   5   7
BRANCH   4  24
HETATM   24  O6  TOB     1      29.468 -52.574  -8.920  1.00  0.00    -0.390 OA
HETATM   25  H22 TOB     1      28.586 -52.499  -8.469  1.00  0.00     0.210 HD
ENDBRANCH   4  24
BRANCH   6  26
HETATM   26  N1  TOB     1      26.717 -52.394 -10.382  1.00  0.00     0.085 N 
HETATM   27  H8  TOB     1      27.368 -51.733 -10.864  1.00  0.00     0.313 HD
HETATM   28  H9  TOB     1      25.762 -52.235 -10.760  1.00  0.00     0.313 HD
ENDBRANCH   6  26
BRANCH   3  29
HETATM   29  O7  TOB     1      29.398 -56.195  -9.079  1.00  0.00    -0.349 OA
BRANCH  29  30
HETATM   30  C13 TOB     1      29.997 -57.070  -8.132  1.00  0.00     0.293 C 
HETATM   31  C14 TOB     1      31.203 -57.790  -8.785  1.00  0.00     0.275 C 
HETATM   32  C15 TOB     1      31.539 -59.107  -8.040  1.00  0.00     0.074 C 
HETATM   33  C16 TOB     1      31.015 -59.084  -6.598  1.00  0.00     0.151 C 
HETATM   34  C17 TOB     1      29.483 -58.791  -6.600  1.00  0.00     0.181 C 
HETATM   35  O8  TOB     1      29.043 -58.037  -7.728  1.00  0.00    -0.349 OA
BRANCH  31  36
HETATM   36  N4  TOB     1      30.951 -58.052 -10.205  1.00  0.00     0.087 N 
HETATM   37  H34 TOB     1      31.701 -58.685 -10.569  1.00  0.00     0.313 HD
HETATM   38  H35 TOB     1      30.035 -58.548 -10.312  1.00  0.00     0.313 HD
ENDBRANCH  31  36
BRANCH  33  39
HETATM   39  O9  TOB     1      31.262 -60.324  -5.985  1.00  0.00    -0.393 OA
HETATM   40  H33 TOB     1      30.521 -60.928  -6.251  1.00  0.00     0.210 HD
ENDBRANCH  33  39
BRANCH  34  41
HETATM   41  C18 TOB     1      29.002 -58.105  -5.300  1.00  0.00     0.301 C 
BRANCH  41  42
HETATM   42  N3  TOB     1      30.076 -57.945  -4.320  1.00  0.00     0.080 N 
HETATM   43  H31 TOB     1      30.128 -58.799  -3.717  1.00  0.00     0.312 HD
HETATM   44  H32 TOB     1      30.987 -57.843  -4.821  1.00  0.00     0.312 HD
ENDBRANCH  41  42
ENDBRANCH  34  41
ENDBRANCH  29  30
ENDBRANCH   3  29
BRANCH   2  45
HETATM   45  N5  TOB     1      27.213 -53.823  -7.251  1.00  0.00     0.085 N 
HETATM   46  H36 TOB     1      28.043 -53.583  -6.673  1.00  0.00     0.313 HD
HETATM   47  H37 TOB     1      26.919 -52.953  -7.752  1.00  0.00     0.313 HD
ENDBRANCH   2  45
TORSDOF 16
ENDMDL
