@<TRIPOS>MOLECULE
*****
 88 91 0 0 0
SMALL
GASTEIGER

@<TRIPOS>ATOM
      1  C1         9.9525  -29.3944   -0.7902 C.3     1  NEO1       -0.0175
      2  N1        10.8695  -31.3774    0.3549 N.3     1  NEO1       -0.3250
      3  O1        10.2642  -32.9590   -2.0837 O.3     1  NEO1       -0.3422
      4  C2         9.0442  -28.8991   -1.9373 C.3     1  NEO1        0.0351
      5  N2         8.4333  -36.2355    1.4191 N.3     1  NEO1       -0.3276
      6  O2        11.1003  -34.3969   -0.3927 O.3     1  NEO1       -0.3425
      7  C3         9.5287  -29.4694   -3.2890 C.3     1  NEO1        0.0990
      8  N3        11.8586  -34.3068   -4.0430 N.3     1  NEO1       -0.3211
      9  O3         8.7326  -37.0375   -1.4395 O.3     1  NEO1       -0.3866
     10  C4         9.5815  -31.0101   -3.2510 C.3     1  NEO1        0.1166
     11  N4         6.3842  -35.1348  -11.7910 N.3     1  NEO1       -0.3276
     12  O4        10.5455  -36.8773   -3.6907 O.3     1  NEO1       -0.3874
     13  C5        10.4542  -31.5261   -2.0910 C.3     1  NEO1        0.1055
     14  N5         5.1277  -31.5209   -8.9803 N.3     1  NEO1       -0.3211
     15  O5        10.1694  -31.4703   -4.4934 O.3     1  NEO1       -0.3402
     16  C6         9.9834  -30.9384   -0.7370 C.3     1  NEO1        0.0355
     17  N6         9.0477  -27.4261   -1.9819 N.3     1  NEO1       -0.3250
     18  O6         9.1990  -33.3813   -5.5114 O.3     1  NEO1       -0.3405
     19  C7        11.3804  -33.7819   -1.6735 C.3     1  NEO1        0.1776
     20  O7         9.8781  -35.9992   -6.3108 O.3     1  NEO1       -0.3924
     21  C8        11.5769  -34.8982   -2.7223 C.3     1  NEO1        0.0853
     22  O8         7.6975  -32.1628   -8.1140 O.3     1  NEO1       -0.3410
     23  C9        10.3169  -35.7921   -2.7826 C.3     1  NEO1        0.1033
     24  O9         7.3512  -33.0048  -10.2853 O.3     1  NEO1       -0.3425
     25  C10        9.9834  -36.3465   -1.3760 C.3     1  NEO1        0.1100
     26  O10        4.7755  -32.5705  -11.7343 O.3     1  NEO1       -0.3866
     27  C11        9.8917  -35.1988   -0.3319 C.3     1  NEO1        0.1022
     28  O11        7.0600  -29.7435  -11.6218 O.3     1  NEO1       -0.3874
     29  C12        9.7776  -35.7102    1.1219 C.3     1  NEO1        0.0222
     30  O12        9.2882  -30.1998   -7.1884 O.3     1  NEO1       -0.3841
     31  C13        9.2286  -31.9411   -5.4792 C.3     1  NEO1        0.1884
     32  O13        8.6302  -29.0810   -4.3286 O.3     1  NEO1       -0.3876
     33  C14        9.7020  -31.5408   -6.8796 C.3     1  NEO1        0.1345
     34  C15        9.0321  -32.6003   -7.7644 C.3     1  NEO1        0.1205
     35  C16        8.9178  -33.8424   -6.8571 C.3     1  NEO1        0.1135
     36  C17        9.9620  -34.9110   -7.2284 C.3     1  NEO1        0.0730
     37  C18        7.5320  -31.8040   -9.4995 C.3     1  NEO1        0.1776
     38  C19        6.2904  -30.8976   -9.6401 C.3     1  NEO1        0.0853
     39  C20        6.0228  -30.5983  -11.1398 C.3     1  NEO1        0.1033
     40  C21        5.9921  -31.8811  -12.0075 C.3     1  NEO1        0.1100
     41  C22        7.2352  -32.7696  -11.7142 C.3     1  NEO1        0.1022
     42  C23        7.2301  -34.1273  -12.4580 C.3     1  NEO1        0.0222
     43  H01        9.5828  -29.0038    0.1615 H       1  NEO1        0.0297
     44  H02       10.9669  -29.0100   -0.9308 H       1  NEO1        0.0297
     45  H03       10.5096  -31.0536    1.2503 H       1  NEO1        0.1185
     46  H04       10.8888  -32.3969    0.3877 H       1  NEO1        0.1185
     47  H05        8.0212  -29.2413   -1.7546 H       1  NEO1        0.0485
     48  H06        8.3830  -36.5345    2.3912 H       1  NEO1        0.1183
     49  H07        7.7375  -35.5026    1.2933 H       1  NEO1        0.1183
     50  H08       10.5276  -29.0826   -3.5129 H       1  NEO1        0.0636
     51  H09       11.9358  -35.0456   -4.7382 H       1  NEO1        0.1187
     52  H10       11.0779  -33.7089   -4.3170 H       1  NEO1        0.1187
     53  H11        8.4540  -37.2260   -0.5230 H       1  NEO1        0.2100
     54  H12        8.5719  -31.4189   -3.1374 H       1  NEO1        0.0650
     55  H13        6.4724  -36.0354  -12.2565 H       1  NEO1        0.1183
     56  H14        6.6895  -35.2545  -10.8268 H       1  NEO1        0.1183
     57  H15       10.3830  -36.5600   -4.6060 H       1  NEO1        0.2100
     58  H16       11.5021  -31.2775   -2.2852 H       1  NEO1        0.0639
     59  H17        4.9942  -32.4573   -9.3551 H       1  NEO1        0.1187
     60  H18        5.3401  -31.6444   -7.9919 H       1  NEO1        0.1187
     61  H19        8.9729  -31.3036   -0.5315 H       1  NEO1        0.0485
     62  H20        8.4629  -27.1088   -2.7537 H       1  NEO1        0.1185
     63  H21        8.6514  -27.0468   -1.1245 H       1  NEO1        0.1185
     64  H22       12.2870  -33.1644   -1.5775 H       1  NEO1        0.0927
     65  H23        9.9150  -35.6370   -5.4020 H       1  NEO1        0.2095
     66  H24       12.4321  -35.5115   -2.4246 H       1  NEO1        0.0535
     67  H25        9.4679  -35.2000   -3.1384 H       1  NEO1        0.0637
     68  H26       10.7668  -37.0461   -1.0709 H       1  NEO1        0.0646
     69  H27        4.7210  -32.6410  -10.7640 H       1  NEO1        0.2100
     70  H28        9.0381  -34.5530   -0.5599 H       1  NEO1        0.0636
     71  H29        7.1450  -29.0140  -10.9860 H       1  NEO1        0.2100
     72  H30       10.5220  -36.4918    1.2961 H       1  NEO1        0.0448
     73  H31        9.9828  -34.8820    1.8059 H       1  NEO1        0.0448
     74  H32        9.3430  -30.0530   -8.1510 H       1  NEO1        0.2101
     75  H33        8.2116  -31.5660   -5.2801 H       1  NEO1        0.0938
     76  H34        8.8620  -29.6230   -5.1110 H       1  NEO1        0.2100
     77  H35       10.7901  -31.6308   -6.9464 H       1  NEO1        0.0671
     78  H36        9.6203  -32.8130   -8.6625 H       1  NEO1        0.0651
     79  H37        7.9078  -34.2615   -6.8983 H       1  NEO1        0.0647
     80  H38        9.7743  -35.2754   -8.2423 H       1  NEO1        0.0584
     81  H39       10.9658  -34.4792   -7.1848 H       1  NEO1        0.0584
     82  H40        8.4345  -31.2787   -9.8500 H       1  NEO1        0.0927
     83  H41        6.4907  -29.9524   -9.1279 H       1  NEO1        0.0535
     84  H42        5.0697  -30.0698  -11.2375 H       1  NEO1        0.0637
     85  H43        5.9972  -31.6012  -13.0647 H       1  NEO1        0.0646
     86  H44        8.1234  -32.2199  -12.0401 H       1  NEO1        0.0636
     87  H45        6.8865  -33.9839  -13.4860 H       1  NEO1        0.0448
     88  H46        8.2543  -34.5080  -12.4890 H       1  NEO1        0.0448
@<TRIPOS>BOND
     1    87    42    1
     2    85    40    1
     3    88    42    1
     4    42    41    1
     5    42    11    1
     6    40    26    1
     7    40    41    1
     8    40    39    1
     9    86    41    1
    10    26    69    1
    11    28    39    1
    12    28    71    1
    13    55    11    1
    14    41    24    1
    15    11    56    1
    16    84    39    1
    17    39    38    1
    18    24    37    1
    19    82    37    1
    20    38    37    1
    21    38    83    1
    22    38    14    1
    23    37    22    1
    24    14    59    1
    25    14    60    1
    26    78    34    1
    27    80    36    1
    28    74    30    1
    29    22    34    1
    30    34    33    1
    31    34    35    1
    32    30    33    1
    33    36    81    1
    34    36    35    1
    35    36    20    1
    36    77    33    1
    37    79    35    1
    38    33    31    1
    39    35    18    1
    40    20    65    1
    41    31    18    1
    42    31    75    1
    43    31    15    1
    44    76    32    1
    45    51     8    1
    46    57    12    1
    47    32     7    1
    48    15    10    1
    49     8    52    1
    50     8    21    1
    51    12    23    1
    52    50     7    1
    53     7    10    1
    54     7     4    1
    55    10    54    1
    56    10    13    1
    57    67    23    1
    58    23    21    1
    59    23    25    1
    60    21    66    1
    61    21    19    1
    62    62    17    1
    63    17     4    1
    64    17    63    1
    65     4    47    1
    66     4     1    1
    67    58    13    1
    68    13     3    1
    69    13    16    1
    70     3    19    1
    71    19    64    1
    72    19     6    1
    73     9    25    1
    74     9    53    1
    75    25    68    1
    76    25    27    1
    77    44     1    1
    78     1    16    1
    79     1    43    1
    80    16    61    1
    81    16     2    1
    82    70    27    1
    83     6    27    1
    84    27    29    1
    85    46     2    1
    86     2    45    1
    87    29    72    1
    88    29     5    1
    89    29    73    1
    90     5    49    1
    91     5    48    1
