REMARK  4 active torsions:
REMARK  status: ('A' for Active; 'I' for Inactive)
REMARK    1  A    between atoms: C_1  and  C_7 
REMARK    2  A    between atoms: C_3  and  O_13 
REMARK    3  A    between atoms: C_4  and  O_19 
REMARK    4  A    between atoms: O_13  and  C_14 
ROOT
HETATM    1  C   UNK     0       0.232  -0.142  -1.037  0.00  0.00    -0.049 A 
HETATM    2  C   UNK     0      -0.167  -0.171   0.285  0.00  0.00     0.047 A 
HETATM    3  C   UNK     0       0.774  -0.066   1.296  0.00  0.00     0.103 A 
HETATM    4  C   UNK     0       2.120   0.078   0.976  0.00  0.00     0.101 A 
HETATM    5  C   UNK     0       2.515   0.107  -0.351  0.00  0.00     0.040 A 
HETATM    6  C   UNK     0       1.570  -0.003  -1.355  0.00  0.00     0.010 A 
ENDROOT
BRANCH   1   7
HETATM    7  C   UNK     0      -0.792  -0.261  -2.135  0.00  0.00     0.045 C 
HETATM    8  C   UNK     0      -0.701   0.935  -3.110  0.00  0.00     0.113 C 
HETATM    9  C   UNK     0      -0.976   0.328  -4.468  0.00  0.00     0.218 C 
HETATM   10  O   UNK     0      -1.272   0.956  -5.462  0.00  0.00    -0.274 OA
HETATM   11  N   UNK     0      -0.845  -1.008  -4.413  0.00  0.00    -0.360 N 
HETATM   12  C   UNK     0      -0.469  -1.451  -3.065  0.00  0.00     0.132 C 
HETATM   13  H   UNK     0      -0.981  -1.603  -5.167  0.00  0.00     0.162 HD
ENDBRANCH   1   7
BRANCH   3  14
HETATM   14  O   UNK     0       0.382  -0.095   2.598  0.00  0.00    -0.343 OA
BRANCH  14  15
HETATM   15  C   UNK     0      -1.014  -0.395   2.603  0.00  0.00     0.129 C 
HETATM   16  C   UNK     0      -1.425  -0.973   3.968  0.00  0.00     0.032 C 
HETATM   17  C   UNK     0      -2.478  -0.011   4.555  0.00  0.00     0.002 C 
HETATM   18  C   UNK     0      -3.072   0.704   3.316  0.00  0.00     0.002 C 
HETATM   19  C   UNK     0      -1.832   0.898   2.407  0.00  0.00     0.032 C 
ENDBRANCH  14  15
ENDBRANCH   3  14
BRANCH   4  20
HETATM   20  O   UNK     0       3.048   0.187   1.965  0.00  0.00    -0.353 OA
HETATM   21  C   UNK     0       4.320   0.316   1.326  0.00  0.00     0.210 C 
ENDBRANCH   4  20
TORSDOF 4
