MODEL 1
REMARK VINA RESULT:      -9.1      0.000      0.000
REMARK  7 active torsions:
REMARK  status: ('A' for Active; 'I' for Inactive)
REMARK    1  A    between atoms: S_1  and  N_6 
REMARK    2  A    between atoms: S_1  and  C_18 
REMARK    3  A    between atoms: O_4  and  C_23 
REMARK    4  A    between atoms: O_4  and  C_34 
REMARK    5  A    between atoms: C_21  and  C_24 
REMARK    6  A    between atoms: C_28  and  C_29 
REMARK    7  A    between atoms: C_29  and  C_31 
ROOT
HETATM    1  C   UNL N   1     -35.046 -15.312 -20.082  0.00  0.00     0.075 A 
HETATM    2  C   UNL N   1     -34.393 -15.892 -18.997  0.00  0.00     0.042 A 
HETATM    3  C   UNL N   1     -33.235 -15.312 -18.482  0.00  0.00     0.043 A 
HETATM    4  C   UNL N   1     -34.547 -14.141 -20.661  0.00  0.00     0.027 A 
HETATM    5  C   UNL N   1     -32.748 -14.112 -19.027  0.00  0.00     0.082 A 
HETATM    6  C   UNL N   1     -33.405 -13.534 -20.131  0.00  0.00     0.039 A 
ENDROOT
BRANCH   3   7
HETATM    7  C   UNL N   1     -32.577 -15.918 -17.320  0.00  0.00     0.121 A 
HETATM    8  N   UNL N   1     -32.048 -17.189 -17.403  0.00  0.00    -0.307 N 
HETATM    9  C   UNL N   1     -31.478 -17.787 -16.298  0.00  0.00     0.277 A 
HETATM   10  H   UNL N   1     -32.115 -17.721 -18.300  0.00  0.00     0.170 HD
HETATM   11  O   UNL N   1     -31.044 -18.924 -16.362  0.00  0.00    -0.265 OA
HETATM   12  C   UNL N   1     -31.416 -17.051 -15.121  0.00  0.00     0.147 A 
HETATM   13  N   UNL N   1     -30.920 -17.354 -13.904  0.00  0.00    -0.289 N 
HETATM   14  C   UNL N   1     -31.903 -15.793 -15.090  0.00  0.00     0.092 A 
HETATM   15  N   UNL N   1     -31.070 -16.297 -13.107  0.00  0.00    -0.300 N 
HETATM   16  C   UNL N   1     -30.310 -18.611 -13.489  0.00  0.00     0.178 C 
HETATM   17  C   UNL N   1     -31.666 -15.314 -13.827  0.00  0.00     0.055 A 
ATOM     18  HN  UNL N   1     -30.787 -16.239 -12.128  1.00  0.00     0.187 HD
HETATM   19  N   UNL N   1     -32.506 -15.214 -16.151  0.00  0.00    -0.338 N 
ATOM     20  HN  UNL N   1     -32.897 -14.275 -16.081  1.00  0.00     0.167 HD
BRANCH  17  21
HETATM   21  C   UNL N   1     -31.965 -13.935 -13.320  0.00  0.00     0.061 C 
BRANCH  21  22
HETATM   22  C   UNL N   1     -33.441 -13.762 -12.963  0.00  0.00     0.002 C 
HETATM   23  C   UNL N   1     -33.818 -12.280 -12.879  0.00  0.00     0.005 C 
ENDBRANCH  21  22
ENDBRANCH  17  21
ENDBRANCH   3   7
BRANCH   5  24
HETATM   24  O   UNL N   1     -31.717 -13.491 -18.403  0.00  0.00    -0.351 OA
BRANCH  24  25
HETATM   25  C   UNL N   1     -31.676 -12.123 -18.212  0.00  0.00     0.171 C 
HETATM   26  C   UNL N   1     -32.532 -11.756 -17.011  0.00  0.00     0.034 C 
ENDBRANCH  24  25
ENDBRANCH   5  24
BRANCH   1  27
HETATM   27  S   UNL N   1     -36.580 -16.025 -20.643  0.00  0.00     0.243 S 
HETATM   28  O   UNL N   1     -37.144 -15.409 -21.933  0.00  0.00    -0.206 OA
HETATM   29  O   UNL N   1     -36.468 -17.514 -21.005  0.00  0.00    -0.206 OA
BRANCH  27  30
HETATM   30  N   UNL N   1     -37.884 -15.936 -19.439  0.00  0.00    -0.203 NA
HETATM   31  C   UNL N   1     -37.677 -14.740 -18.606  0.00  0.00     0.135 C 
HETATM   32  C   UNL N   1     -38.767 -14.662 -17.531  0.00  0.00     0.250 C 
HETATM   33  N   UNL N   1     -38.746 -15.873 -16.685  0.00  0.00    -0.073 N 
HETATM   34  C   UNL N   1     -38.918 -17.083 -17.519  0.00  0.00     0.250 C 
HETATM   35  C   UNL N   1     -39.807 -15.802 -15.669  0.00  0.00     0.269 C 
HETATM   36  H   UNL N   1     -37.824 -15.928 -16.188  0.00  0.00     0.279 HD
HETATM   37  C   UNL N   1     -37.831 -17.145 -18.596  0.00  0.00     0.135 C 
ENDBRANCH  27  30
ENDBRANCH   1  27
TORSDOF 7
ENDMDL
MODEL 2
REMARK VINA RESULT:      -9.1     11.360     15.852
REMARK  7 active torsions:
REMARK  status: ('A' for Active; 'I' for Inactive)
REMARK    1  A    between atoms: S_1  and  N_6 
REMARK    2  A    between atoms: S_1  and  C_18 
REMARK    3  A    between atoms: O_4  and  C_23 
REMARK    4  A    between atoms: O_4  and  C_34 
REMARK    5  A    between atoms: C_21  and  C_24 
REMARK    6  A    between atoms: C_28  and  C_29 
REMARK    7  A    between atoms: C_29  and  C_31 
ROOT
HETATM    1  C   UNL N   1     -20.879 -22.821 -13.605  0.00  0.00     0.075 A 
HETATM    2  C   UNL N   1     -22.271 -22.831 -13.610  0.00  0.00     0.042 A 
HETATM    3  C   UNL N   1     -22.969 -23.866 -12.991  0.00  0.00     0.043 A 
HETATM    4  C   UNL N   1     -20.169 -23.849 -12.975  0.00  0.00     0.027 A 
HETATM    5  C   UNL N   1     -22.269 -24.881 -12.317  0.00  0.00     0.082 A 
HETATM    6  C   UNL N   1     -20.860 -24.874 -12.323  0.00  0.00     0.039 A 
ENDROOT
BRANCH   3   7
HETATM    7  C   UNL N   1     -24.436 -23.844 -12.978  0.00  0.00     0.121 A 
HETATM    8  N   UNL N   1     -25.113 -22.672 -12.720  0.00  0.00    -0.307 N 
HETATM    9  C   UNL N   1     -26.491 -22.656 -12.651  0.00  0.00     0.277 A 
HETATM   10  H   UNL N   1     -24.578 -21.793 -12.535  0.00  0.00     0.170 HD
HETATM   11  O   UNL N   1     -27.088 -21.626 -12.387  0.00  0.00    -0.265 OA
HETATM   12  C   UNL N   1     -27.167 -23.845 -12.895  0.00  0.00     0.147 A 
HETATM   13  N   UNL N   1     -28.484 -24.138 -12.909  0.00  0.00    -0.289 N 
HETATM   14  C   UNL N   1     -26.471 -24.964 -13.189  0.00  0.00     0.092 A 
HETATM   15  N   UNL N   1     -28.632 -25.422 -13.227  0.00  0.00    -0.300 N 
HETATM   16  C   UNL N   1     -29.591 -23.230 -12.634  0.00  0.00     0.178 C 
HETATM   17  C   UNL N   1     -27.397 -25.950 -13.418  0.00  0.00     0.055 A 
ATOM     18  HN  UNL N   1     -29.519 -25.921 -13.311  1.00  0.00     0.187 HD
HETATM   19  N   UNL N   1     -25.121 -25.003 -13.213  0.00  0.00    -0.338 N 
ATOM     20  HN  UNL N   1     -24.627 -25.874 -13.402  1.00  0.00     0.167 HD
BRANCH  17  21
HETATM   21  C   UNL N   1     -27.119 -27.360 -13.846  0.00  0.00     0.061 C 
BRANCH  21  22
HETATM   22  C   UNL N   1     -26.988 -27.483 -15.364  0.00  0.00     0.002 C 
HETATM   23  C   UNL N   1     -25.553 -27.202 -15.818  0.00  0.00     0.005 C 
ENDBRANCH  21  22
ENDBRANCH  17  21
ENDBRANCH   3   7
BRANCH   5  24
HETATM   24  O   UNL N   1     -22.977 -25.782 -11.592  0.00  0.00    -0.351 OA
BRANCH  24  25
HETATM   25  C   UNL N   1     -22.734 -27.141 -11.651  0.00  0.00     0.171 C 
HETATM   26  C   UNL N   1     -23.851 -27.819 -12.428  0.00  0.00     0.034 C 
ENDBRANCH  24  25
ENDBRANCH   5  24
BRANCH   1  27
HETATM   27  S   UNL N   1     -20.026 -21.426 -14.315  0.00  0.00     0.243 S 
HETATM   28  O   UNL N   1     -20.844 -20.126 -14.364  0.00  0.00    -0.206 OA
HETATM   29  O   UNL N   1     -18.777 -21.005 -13.525  0.00  0.00    -0.206 OA
BRANCH  27  30
HETATM   30  N   UNL N   1     -19.453 -21.716 -15.972  0.00  0.00    -0.203 NA
HETATM   31  C   UNL N   1     -20.173 -20.813 -16.885  0.00  0.00     0.135 C 
HETATM   32  C   UNL N   1     -19.727 -21.070 -18.329  0.00  0.00     0.250 C 
HETATM   33  N   UNL N   1     -19.985 -22.476 -18.705  0.00  0.00    -0.073 N 
HETATM   34  C   UNL N   1     -19.293 -23.392 -17.771  0.00  0.00     0.250 C 
HETATM   35  C   UNL N   1     -19.536 -22.723 -20.084  0.00  0.00     0.269 C 
HETATM   36  H   UNL N   1     -21.017 -22.658 -18.663  0.00  0.00     0.279 HD
HETATM   37  C   UNL N   1     -19.738 -23.117 -16.331  0.00  0.00     0.135 C 
ENDBRANCH  27  30
ENDBRANCH   1  27
TORSDOF 7
ENDMDL
MODEL 3
REMARK VINA RESULT:      -8.6      8.494     12.896
REMARK  7 active torsions:
REMARK  status: ('A' for Active; 'I' for Inactive)
REMARK    1  A    between atoms: S_1  and  N_6 
REMARK    2  A    between atoms: S_1  and  C_18 
REMARK    3  A    between atoms: O_4  and  C_23 
REMARK    4  A    between atoms: O_4  and  C_34 
REMARK    5  A    between atoms: C_21  and  C_24 
REMARK    6  A    between atoms: C_28  and  C_29 
REMARK    7  A    between atoms: C_29  and  C_31 
ROOT
HETATM    1  C   UNL N   1     -26.024 -23.694 -12.012  0.00  0.00     0.075 A 
HETATM    2  C   UNL N   1     -25.246 -22.938 -12.885  0.00  0.00     0.042 A 
HETATM    3  C   UNL N   1     -23.965 -23.361 -13.230  0.00  0.00     0.043 A 
HETATM    4  C   UNL N   1     -25.526 -24.886 -11.477  0.00  0.00     0.027 A 
HETATM    5  C   UNL N   1     -23.469 -24.579 -12.734  0.00  0.00     0.082 A 
HETATM    6  C   UNL N   1     -24.255 -25.336 -11.843  0.00  0.00     0.039 A 
ENDROOT
BRANCH   3   7
HETATM    7  C   UNL N   1     -23.171 -22.569 -14.175  0.00  0.00     0.121 A 
HETATM    8  N   UNL N   1     -22.282 -23.188 -15.028  0.00  0.00    -0.307 N 
HETATM    9  C   UNL N   1     -21.490 -22.445 -15.880  0.00  0.00     0.277 A 
HETATM   10  H   UNL N   1     -22.175 -24.227 -15.002  0.00  0.00     0.170 HD
HETATM   11  O   UNL N   1     -20.678 -22.989 -16.608  0.00  0.00    -0.265 OA
HETATM   12  C   UNL N   1     -21.655 -21.065 -15.880  0.00  0.00     0.147 A 
HETATM   13  N   UNL N   1     -21.047 -20.093 -16.592  0.00  0.00    -0.289 N 
HETATM   14  C   UNL N   1     -22.568 -20.498 -15.063  0.00  0.00     0.092 A 
HETATM   15  N   UNL N   1     -21.577 -18.919 -16.251  0.00  0.00    -0.300 N 
HETATM   16  C   UNL N   1     -19.989 -20.256 -17.581  0.00  0.00     0.178 C 
HETATM   17  C   UNL N   1     -22.531 -19.150 -15.313  0.00  0.00     0.055 A 
ATOM     18  HN  UNL N   1     -21.311 -18.009 -16.627  1.00  0.00     0.187 HD
HETATM   19  N   UNL N   1     -23.314 -21.210 -14.191  0.00  0.00    -0.338 N 
ATOM     20  HN  UNL N   1     -23.968 -20.746 -13.562  1.00  0.00     0.167 HD
BRANCH  17  21
HETATM   21  C   UNL N   1     -23.410 -18.100 -14.703  0.00  0.00     0.061 C 
BRANCH  21  22
HETATM   22  C   UNL N   1     -22.675 -16.772 -14.519  0.00  0.00     0.002 C 
HETATM   23  C   UNL N   1     -23.638 -15.665 -14.082  0.00  0.00     0.005 C 
ENDBRANCH  21  22
ENDBRANCH  17  21
ENDBRANCH   3   7
BRANCH   5  24
HETATM   24  O   UNL N   1     -22.287 -25.039 -13.215  0.00  0.00    -0.351 OA
BRANCH  24  25
HETATM   25  C   UNL N   1     -21.276 -25.495 -12.391  0.00  0.00     0.171 C 
HETATM   26  C   UNL N   1     -20.398 -24.325 -11.977  0.00  0.00     0.034 C 
ENDBRANCH  24  25
ENDBRANCH   5  24
BRANCH   1  27
HETATM   27  S   UNL N   1     -27.696 -23.173 -11.678  0.00  0.00     0.243 S 
HETATM   28  O   UNL N   1     -28.673 -24.313 -11.348  0.00  0.00    -0.206 OA
HETATM   29  O   UNL N   1     -27.819 -22.260 -10.448  0.00  0.00    -0.206 OA
BRANCH  27  30
HETATM   30  N   UNL N   1     -28.432 -22.259 -13.012  0.00  0.00    -0.203 NA
HETATM   31  C   UNL N   1     -28.653 -20.873 -12.570  0.00  0.00     0.135 C 
HETATM   32  C   UNL N   1     -29.325 -20.071 -13.690  0.00  0.00     0.250 C 
HETATM   33  N   UNL N   1     -30.614 -20.690 -14.064  0.00  0.00    -0.073 N 
HETATM   34  C   UNL N   1     -30.407 -22.096 -14.478  0.00  0.00     0.250 C 
HETATM   35  C   UNL N   1     -31.246 -19.929 -15.153  0.00  0.00     0.269 C 
HETATM   36  H   UNL N   1     -31.259 -20.668 -13.237  0.00  0.00     0.279 HD
HETATM   37  C   UNL N   1     -29.723 -22.883 -13.355  0.00  0.00     0.135 C 
ENDBRANCH  27  30
ENDBRANCH   1  27
TORSDOF 7
ENDMDL
MODEL 4
REMARK VINA RESULT:      -8.5      8.998     13.465
REMARK  7 active torsions:
REMARK  status: ('A' for Active; 'I' for Inactive)
REMARK    1  A    between atoms: S_1  and  N_6 
REMARK    2  A    between atoms: S_1  and  C_18 
REMARK    3  A    between atoms: O_4  and  C_23 
REMARK    4  A    between atoms: O_4  and  C_34 
REMARK    5  A    between atoms: C_21  and  C_24 
REMARK    6  A    between atoms: C_28  and  C_29 
REMARK    7  A    between atoms: C_29  and  C_31 
ROOT
HETATM    1  C   UNL N   1     -26.213 -23.760 -12.104  0.00  0.00     0.075 A 
HETATM    2  C   UNL N   1     -25.359 -22.905 -12.796  0.00  0.00     0.042 A 
HETATM    3  C   UNL N   1     -24.066 -23.314 -13.120  0.00  0.00     0.043 A 
HETATM    4  C   UNL N   1     -25.783 -25.038 -11.733  0.00  0.00     0.027 A 
HETATM    5  C   UNL N   1     -23.636 -24.610 -12.790  0.00  0.00     0.082 A 
HETATM    6  C   UNL N   1     -24.500 -25.469 -12.081  0.00  0.00     0.039 A 
ENDROOT
BRANCH   3   7
HETATM    7  C   UNL N   1     -23.190 -22.413 -13.875  0.00  0.00     0.121 A 
HETATM    8  N   UNL N   1     -23.502 -22.061 -15.170  0.00  0.00    -0.307 N 
HETATM    9  C   UNL N   1     -22.654 -21.259 -15.906  0.00  0.00     0.277 A 
HETATM   10  H   UNL N   1     -24.370 -22.437 -15.616  0.00  0.00     0.170 HD
HETATM   11  O   UNL N   1     -22.912 -20.978 -17.064  0.00  0.00    -0.265 OA
HETATM   12  C   UNL N   1     -21.506 -20.785 -15.283  0.00  0.00     0.147 A 
HETATM   13  N   UNL N   1     -20.510 -19.992 -15.729  0.00  0.00    -0.289 N 
HETATM   14  C   UNL N   1     -21.256 -21.114 -13.998  0.00  0.00     0.092 A 
HETATM   15  N   UNL N   1     -19.642 -19.798 -14.737  0.00  0.00    -0.300 N 
HETATM   16  C   UNL N   1     -20.371 -19.417 -17.061  0.00  0.00     0.178 C 
HETATM   17  C   UNL N   1     -20.093 -20.474 -13.651  0.00  0.00     0.055 A 
ATOM     18  HN  UNL N   1     -18.790 -19.240 -14.787  1.00  0.00     0.187 HD
HETATM   19  N   UNL N   1     -22.054 -21.936 -13.283  0.00  0.00    -0.338 N 
ATOM     20  HN  UNL N   1     -21.815 -22.194 -12.326  1.00  0.00     0.167 HD
BRANCH  17  21
HETATM   21  C   UNL N   1     -19.438 -20.473 -12.302  0.00  0.00     0.061 C 
BRANCH  21  22
HETATM   22  C   UNL N   1     -18.103 -21.217 -12.312  0.00  0.00     0.002 C 
HETATM   23  C   UNL N   1     -16.948 -20.281 -11.946  0.00  0.00     0.005 C 
ENDBRANCH  21  22
ENDBRANCH  17  21
ENDBRANCH   3   7
BRANCH   5  24
HETATM   24  O   UNL N   1     -22.435 -25.031 -13.259  0.00  0.00    -0.351 OA
BRANCH  24  25
HETATM   25  C   UNL N   1     -21.466 -25.579 -12.440  0.00  0.00     0.171 C 
HETATM   26  C   UNL N   1     -20.182 -24.777 -12.573  0.00  0.00     0.034 C 
ENDBRANCH  24  25
ENDBRANCH   5  24
BRANCH   1  27
HETATM   27  S   UNL N   1     -27.891 -23.240 -11.803  0.00  0.00     0.243 S 
HETATM   28  O   UNL N   1     -28.889 -24.385 -11.568  0.00  0.00    -0.206 OA
HETATM   29  O   UNL N   1     -28.050 -22.392 -10.531  0.00  0.00    -0.206 OA
BRANCH  27  30
HETATM   30  N   UNL N   1     -28.571 -22.249 -13.111  0.00  0.00    -0.203 NA
HETATM   31  C   UNL N   1     -28.813 -20.891 -12.598  0.00  0.00     0.135 C 
HETATM   32  C   UNL N   1     -29.439 -20.024 -13.697  0.00  0.00     0.250 C 
HETATM   33  N   UNL N   1     -30.709 -20.620 -14.162  0.00  0.00    -0.073 N 
HETATM   34  C   UNL N   1     -30.481 -21.998 -14.648  0.00  0.00     0.250 C 
HETATM   35  C   UNL N   1     -31.295 -19.796 -15.231  0.00  0.00     0.269 C 
HETATM   36  H   UNL N   1     -31.389 -20.645 -13.364  0.00  0.00     0.279 HD
HETATM   37  C   UNL N   1     -29.845 -22.851 -13.545  0.00  0.00     0.135 C 
ENDBRANCH  27  30
ENDBRANCH   1  27
TORSDOF 7
ENDMDL
MODEL 5
REMARK VINA RESULT:      -8.5      2.433      3.053
REMARK  7 active torsions:
REMARK  status: ('A' for Active; 'I' for Inactive)
REMARK    1  A    between atoms: S_1  and  N_6 
REMARK    2  A    between atoms: S_1  and  C_18 
REMARK    3  A    between atoms: O_4  and  C_23 
REMARK    4  A    between atoms: O_4  and  C_34 
REMARK    5  A    between atoms: C_21  and  C_24 
REMARK    6  A    between atoms: C_28  and  C_29 
REMARK    7  A    between atoms: C_29  and  C_31 
ROOT
HETATM    1  C   UNL N   1     -34.916 -15.555 -19.517  0.00  0.00     0.075 A 
HETATM    2  C   UNL N   1     -33.896 -15.179 -18.647  0.00  0.00     0.042 A 
HETATM    3  C   UNL N   1     -33.064 -14.107 -18.963  0.00  0.00     0.043 A 
HETATM    4  C   UNL N   1     -35.117 -14.859 -20.712  0.00  0.00     0.027 A 
HETATM    5  C   UNL N   1     -33.281 -13.372 -20.140  0.00  0.00     0.082 A 
HETATM    6  C   UNL N   1     -34.308 -13.762 -21.023  0.00  0.00     0.039 A 
ENDROOT
BRANCH   3   7
HETATM    7  C   UNL N   1     -32.013 -13.704 -18.022  0.00  0.00     0.121 A 
HETATM    8  N   UNL N   1     -30.781 -13.295 -18.487  0.00  0.00    -0.307 N 
HETATM    9  C   UNL N   1     -29.770 -12.969 -17.607  0.00  0.00     0.277 A 
HETATM   10  H   UNL N   1     -30.596 -13.270 -19.515  0.00  0.00     0.170 HD
HETATM   11  O   UNL N   1     -28.670 -12.643 -18.017  0.00  0.00    -0.265 OA
HETATM   12  C   UNL N   1     -30.051 -13.023 -16.247  0.00  0.00     0.147 A 
HETATM   13  N   UNL N   1     -29.288 -12.759 -15.166  0.00  0.00    -0.289 N 
HETATM   14  C   UNL N   1     -31.283 -13.384 -15.830  0.00  0.00     0.092 A 
HETATM   15  N   UNL N   1     -30.026 -12.930 -14.070  0.00  0.00    -0.300 N 
HETATM   16  C   UNL N   1     -27.890 -12.348 -15.154  0.00  0.00     0.178 C 
HETATM   17  C   UNL N   1     -31.271 -13.305 -14.461  0.00  0.00     0.055 A 
ATOM     18  HN  UNL N   1     -29.711 -12.802 -13.109  1.00  0.00     0.187 HD
HETATM   19  N   UNL N   1     -32.266 -13.752 -16.680  0.00  0.00    -0.338 N 
ATOM     20  HN  UNL N   1     -33.174 -14.055 -16.329  1.00  0.00     0.167 HD
BRANCH  17  21
HETATM   21  C   UNL N   1     -32.428 -13.545 -13.538  0.00  0.00     0.061 C 
BRANCH  21  22
HETATM   22  C   UNL N   1     -33.146 -12.247 -13.169  0.00  0.00     0.002 C 
HETATM   23  C   UNL N   1     -34.220 -12.494 -12.106  0.00  0.00     0.005 C 
ENDBRANCH  21  22
ENDBRANCH  17  21
ENDBRANCH   3   7
BRANCH   5  24
HETATM   24  O   UNL N   1     -32.559 -12.241 -20.339  0.00  0.00    -0.351 OA
BRANCH  24  25
HETATM   25  C   UNL N   1     -32.720 -11.440 -21.453  0.00  0.00     0.171 C 
HETATM   26  C   UNL N   1     -31.949 -10.144 -21.257  0.00  0.00     0.034 C 
ENDBRANCH  24  25
ENDBRANCH   5  24
BRANCH   1  27
HETATM   27  S   UNL N   1     -36.025 -16.863 -19.027  0.00  0.00     0.243 S 
HETATM   28  O   UNL N   1     -36.537 -17.740 -20.180  0.00  0.00    -0.206 OA
HETATM   29  O   UNL N   1     -35.380 -17.892 -18.085  0.00  0.00    -0.206 OA
BRANCH  27  30
HETATM   30  N   UNL N   1     -37.467 -16.283 -18.165  0.00  0.00    -0.203 NA
HETATM   31  C   UNL N   1     -37.163 -16.219 -16.727  0.00  0.00     0.135 C 
HETATM   32  C   UNL N   1     -38.405 -15.760 -15.954  0.00  0.00     0.250 C 
HETATM   33  N   UNL N   1     -39.531 -16.688 -16.190  0.00  0.00    -0.073 N 
HETATM   34  C   UNL N   1     -39.821 -16.786 -17.637  0.00  0.00     0.250 C 
HETATM   35  C   UNL N   1     -40.726 -16.232 -15.463  0.00  0.00     0.269 C 
HETATM   36  H   UNL N   1     -39.274 -17.638 -15.827  0.00  0.00     0.279 HD
HETATM   37  C   UNL N   1     -38.569 -17.234 -18.399  0.00  0.00     0.135 C 
ENDBRANCH  27  30
ENDBRANCH   1  27
TORSDOF 7
ENDMDL
MODEL 6
REMARK VINA RESULT:      -8.3      3.084      3.705
REMARK  7 active torsions:
REMARK  status: ('A' for Active; 'I' for Inactive)
REMARK    1  A    between atoms: S_1  and  N_6 
REMARK    2  A    between atoms: S_1  and  C_18 
REMARK    3  A    between atoms: O_4  and  C_23 
REMARK    4  A    between atoms: O_4  and  C_34 
REMARK    5  A    between atoms: C_21  and  C_24 
REMARK    6  A    between atoms: C_28  and  C_29 
REMARK    7  A    between atoms: C_29  and  C_31 
ROOT
HETATM    1  C   UNL N   1     -34.851 -14.619 -20.258  0.00  0.00     0.075 A 
HETATM    2  C   UNL N   1     -34.045 -14.281 -19.175  0.00  0.00     0.042 A 
HETATM    3  C   UNL N   1     -33.044 -13.321 -19.316  0.00  0.00     0.043 A 
HETATM    4  C   UNL N   1     -34.666 -13.996 -21.497  0.00  0.00     0.027 A 
HETATM    5  C   UNL N   1     -32.876 -12.657 -20.542  0.00  0.00     0.082 A 
HETATM    6  C   UNL N   1     -33.687 -13.009 -21.640  0.00  0.00     0.039 A 
ENDROOT
BRANCH   3   7
HETATM    7  C   UNL N   1     -32.225 -12.955 -18.156  0.00  0.00     0.121 A 
HETATM    8  N   UNL N   1     -30.855 -12.853 -18.276  0.00  0.00    -0.307 N 
HETATM    9  C   UNL N   1     -30.072 -12.564 -17.177  0.00  0.00     0.277 A 
HETATM   10  H   UNL N   1     -30.399 -13.036 -19.199  0.00  0.00     0.170 HD
HETATM   11  O   UNL N   1     -28.858 -12.510 -17.276  0.00  0.00    -0.265 OA
HETATM   12  C   UNL N   1     -30.713 -12.336 -15.966  0.00  0.00     0.147 A 
HETATM   13  N   UNL N   1     -30.231 -12.029 -14.744  0.00  0.00    -0.289 N 
HETATM   14  C   UNL N   1     -32.059 -12.399 -15.897  0.00  0.00     0.092 A 
HETATM   15  N   UNL N   1     -31.255 -11.879 -13.906  0.00  0.00    -0.300 N 
HETATM   16  C   UNL N   1     -28.832 -11.873 -14.362  0.00  0.00     0.178 C 
HETATM   17  C   UNL N   1     -32.399 -12.091 -14.604  0.00  0.00     0.055 A 
ATOM     18  HN  UNL N   1     -31.189 -11.646 -12.915  1.00  0.00     0.187 HD
HETATM   19  N   UNL N   1     -32.833 -12.728 -16.954  0.00  0.00    -0.338 N 
ATOM     20  HN  UNL N   1     -33.845 -12.803 -16.858  1.00  0.00     0.167 HD
BRANCH  17  21
HETATM   21  C   UNL N   1     -33.785 -11.964 -14.046  0.00  0.00     0.061 C 
BRANCH  21  22
HETATM   22  C   UNL N   1     -33.777 -11.480 -12.596  0.00  0.00     0.002 C 
HETATM   23  C   UNL N   1     -34.421 -12.514 -11.668  0.00  0.00     0.005 C 
ENDBRANCH  21  22
ENDBRANCH  17  21
ENDBRANCH   3   7
BRANCH   5  24
HETATM   24  O   UNL N   1     -32.005 -11.619 -20.600  0.00  0.00    -0.351 OA
BRANCH  24  25
HETATM   25  C   UNL N   1     -32.185 -10.542 -21.447  0.00  0.00     0.171 C 
HETATM   26  C   UNL N   1     -31.453  -9.333 -20.885  0.00  0.00     0.034 C 
ENDBRANCH  24  25
ENDBRANCH   5  24
BRANCH   1  27
HETATM   27  S   UNL N   1     -36.187 -15.773 -20.010  0.00  0.00     0.243 S 
HETATM   28  O   UNL N   1     -37.577 -15.132 -19.878  0.00  0.00    -0.206 OA
HETATM   29  O   UNL N   1     -36.379 -16.749 -21.181  0.00  0.00    -0.206 OA
BRANCH  27  30
HETATM   30  N   UNL N   1     -35.976 -16.802 -18.576  0.00  0.00    -0.203 NA
HETATM   31  C   UNL N   1     -35.056 -17.900 -18.914  0.00  0.00     0.135 C 
HETATM   32  C   UNL N   1     -34.888 -18.828 -17.705  0.00  0.00     0.250 C 
HETATM   33  N   UNL N   1     -36.196 -19.377 -17.291  0.00  0.00    -0.073 N 
HETATM   34  C   UNL N   1     -37.139 -18.279 -16.983  0.00  0.00     0.250 C 
HETATM   35  C   UNL N   1     -36.033 -20.250 -16.118  0.00  0.00     0.269 C 
HETATM   36  H   UNL N   1     -36.589 -19.955 -18.073  0.00  0.00     0.279 HD
HETATM   37  C   UNL N   1     -37.289 -17.353 -18.194  0.00  0.00     0.135 C 
ENDBRANCH  27  30
ENDBRANCH   1  27
TORSDOF 7
ENDMDL
MODEL 7
REMARK VINA RESULT:      -8.3      2.708      4.146
REMARK  7 active torsions:
REMARK  status: ('A' for Active; 'I' for Inactive)
REMARK    1  A    between atoms: S_1  and  N_6 
REMARK    2  A    between atoms: S_1  and  C_18 
REMARK    3  A    between atoms: O_4  and  C_23 
REMARK    4  A    between atoms: O_4  and  C_34 
REMARK    5  A    between atoms: C_21  and  C_24 
REMARK    6  A    between atoms: C_28  and  C_29 
REMARK    7  A    between atoms: C_29  and  C_31 
ROOT
HETATM    1  C   UNL N   1     -34.893 -14.643 -20.214  0.00  0.00     0.075 A 
HETATM    2  C   UNL N   1     -34.151 -14.203 -19.121  0.00  0.00     0.042 A 
HETATM    3  C   UNL N   1     -33.158 -13.239 -19.289  0.00  0.00     0.043 A 
HETATM    4  C   UNL N   1     -34.652 -14.120 -21.488  0.00  0.00     0.027 A 
HETATM    5  C   UNL N   1     -32.935 -12.674 -20.555  0.00  0.00     0.082 A 
HETATM    6  C   UNL N   1     -33.680 -13.129 -21.661  0.00  0.00     0.039 A 
ENDROOT
BRANCH   3   7
HETATM    7  C   UNL N   1     -32.407 -12.764 -18.123  0.00  0.00     0.121 A 
HETATM    8  N   UNL N   1     -32.277 -11.413 -17.881  0.00  0.00    -0.307 N 
HETATM    9  C   UNL N   1     -31.524 -10.957 -16.819  0.00  0.00     0.277 A 
HETATM   10  H   UNL N   1     -32.719 -10.724 -18.531  0.00  0.00     0.170 HD
HETATM   11  O   UNL N   1     -31.380  -9.762 -16.626  0.00  0.00    -0.265 OA
HETATM   12  C   UNL N   1     -30.945 -11.902 -15.981  0.00  0.00     0.147 A 
HETATM   13  N   UNL N   1     -30.178 -11.769 -14.879  0.00  0.00    -0.289 N 
HETATM   14  C   UNL N   1     -31.131 -13.217 -16.223  0.00  0.00     0.092 A 
HETATM   15  N   UNL N   1     -29.892 -12.982 -14.409  0.00  0.00    -0.300 N 
HETATM   16  C   UNL N   1     -29.720 -10.527 -14.269  0.00  0.00     0.178 C 
HETATM   17  C   UNL N   1     -30.484 -13.894 -15.221  0.00  0.00     0.055 A 
ATOM     18  HN  UNL N   1     -29.326 -13.188 -13.585  1.00  0.00     0.187 HD
HETATM   19  N   UNL N   1     -31.826 -13.675 -17.287  0.00  0.00    -0.338 N 
ATOM     20  HN  UNL N   1     -31.915 -14.676 -17.460  1.00  0.00     0.167 HD
BRANCH  17  21
HETATM   21  C   UNL N   1     -30.458 -15.378 -15.012  0.00  0.00     0.061 C 
BRANCH  21  22
HETATM   22  C   UNL N   1     -31.136 -15.786 -13.705  0.00  0.00     0.002 C 
HETATM   23  C   UNL N   1     -30.396 -16.950 -13.039  0.00  0.00     0.005 C 
ENDBRANCH  21  22
ENDBRANCH  17  21
ENDBRANCH   3   7
BRANCH   5  24
HETATM   24  O   UNL N   1     -32.076 -11.629 -20.654  0.00  0.00    -0.351 OA
BRANCH  24  25
HETATM   25  C   UNL N   1     -32.255 -10.600 -21.559  0.00  0.00     0.171 C 
HETATM   26  C   UNL N   1     -31.386  -9.419 -21.158  0.00  0.00     0.034 C 
ENDBRANCH  24  25
ENDBRANCH   5  24
BRANCH   1  27
HETATM   27  S   UNL N   1     -36.223 -15.798 -19.940  0.00  0.00     0.243 S 
HETATM   28  O   UNL N   1     -37.610 -15.156 -19.771  0.00  0.00    -0.206 OA
HETATM   29  O   UNL N   1     -36.445 -16.766 -21.112  0.00  0.00    -0.206 OA
BRANCH  27  30
HETATM   30  N   UNL N   1     -35.979 -16.836 -18.518  0.00  0.00    -0.203 NA
HETATM   31  C   UNL N   1     -35.130 -17.974 -18.905  0.00  0.00     0.135 C 
HETATM   32  C   UNL N   1     -34.937 -18.908 -17.705  0.00  0.00     0.250 C 
HETATM   33  N   UNL N   1     -36.243 -19.398 -17.217  0.00  0.00    -0.073 N 
HETATM   34  C   UNL N   1     -37.117 -18.259 -16.859  0.00  0.00     0.250 C 
HETATM   35  C   UNL N   1     -36.054 -20.278 -16.054  0.00  0.00     0.269 C 
HETATM   36  H   UNL N   1     -36.704 -19.958 -17.975  0.00  0.00     0.279 HD
HETATM   37  C   UNL N   1     -37.293 -17.327 -18.062  0.00  0.00     0.135 C 
ENDBRANCH  27  30
ENDBRANCH   1  27
TORSDOF 7
ENDMDL
MODEL 8
REMARK VINA RESULT:      -8.3      3.276      7.182
REMARK  7 active torsions:
REMARK  status: ('A' for Active; 'I' for Inactive)
REMARK    1  A    between atoms: S_1  and  N_6 
REMARK    2  A    between atoms: S_1  and  C_18 
REMARK    3  A    between atoms: O_4  and  C_23 
REMARK    4  A    between atoms: O_4  and  C_34 
REMARK    5  A    between atoms: C_21  and  C_24 
REMARK    6  A    between atoms: C_28  and  C_29 
REMARK    7  A    between atoms: C_29  and  C_31 
ROOT
HETATM    1  C   UNL N   1     -30.961 -12.021 -17.034  0.00  0.00     0.075 A 
HETATM    2  C   UNL N   1     -31.750 -13.166 -16.969  0.00  0.00     0.042 A 
HETATM    3  C   UNL N   1     -32.642 -13.465 -17.997  0.00  0.00     0.043 A 
HETATM    4  C   UNL N   1     -31.054 -11.162 -18.134  0.00  0.00     0.027 A 
HETATM    5  C   UNL N   1     -32.714 -12.634 -19.128  0.00  0.00     0.082 A 
HETATM    6  C   UNL N   1     -31.922 -11.470 -19.186  0.00  0.00     0.039 A 
ENDROOT
BRANCH   3   7
HETATM    7  C   UNL N   1     -33.443 -14.691 -17.928  0.00  0.00     0.121 A 
HETATM    8  N   UNL N   1     -32.829 -15.925 -17.918  0.00  0.00    -0.307 N 
HETATM    9  C   UNL N   1     -33.578 -17.084 -17.909  0.00  0.00     0.277 A 
HETATM   10  H   UNL N   1     -31.786 -15.986 -17.957  0.00  0.00     0.170 HD
HETATM   11  O   UNL N   1     -33.035 -18.175 -17.937  0.00  0.00    -0.265 OA
HETATM   12  C   UNL N   1     -34.961 -16.962 -17.865  0.00  0.00     0.147 A 
HETATM   13  N   UNL N   1     -35.939 -17.891 -17.838  0.00  0.00    -0.289 N 
HETATM   14  C   UNL N   1     -35.526 -15.737 -17.830  0.00  0.00     0.092 A 
HETATM   15  N   UNL N   1     -37.116 -17.270 -17.768  0.00  0.00    -0.300 N 
HETATM   16  C   UNL N   1     -35.780 -19.340 -17.874  0.00  0.00     0.178 C 
HETATM   17  C   UNL N   1     -36.881 -15.934 -17.749  0.00  0.00     0.055 A 
ATOM     18  HN  UNL N   1     -38.030 -17.721 -17.736  1.00  0.00     0.187 HD
HETATM   19  N   UNL N   1     -34.806 -14.596 -17.886  0.00  0.00    -0.338 N 
ATOM     20  HN  UNL N   1     -35.267 -13.687 -17.896  1.00  0.00     0.167 HD
BRANCH  17  21
HETATM   21  C   UNL N   1     -37.935 -14.876 -17.617  0.00  0.00     0.061 C 
BRANCH  21  22
HETATM   22  C   UNL N   1     -38.766 -14.733 -18.892  0.00  0.00     0.002 C 
HETATM   23  C   UNL N   1     -40.197 -15.234 -18.677  0.00  0.00     0.005 C 
ENDBRANCH  21  22
ENDBRANCH  17  21
ENDBRANCH   3   7
BRANCH   5  24
HETATM   24  O   UNL N   1     -33.471 -13.036 -20.178  0.00  0.00    -0.351 OA
BRANCH  24  25
HETATM   25  C   UNL N   1     -33.352 -12.482 -21.439  0.00  0.00     0.171 C 
HETATM   26  C   UNL N   1     -34.113 -13.337 -22.439  0.00  0.00     0.034 C 
ENDBRANCH  24  25
ENDBRANCH   5  24
BRANCH   1  27
HETATM   27  S   UNL N   1     -29.759 -11.731 -15.751  0.00  0.00     0.243 S 
HETATM   28  O   UNL N   1     -29.106 -13.000 -15.179  0.00  0.00    -0.206 OA
HETATM   29  O   UNL N   1     -28.545 -10.915 -16.222  0.00  0.00    -0.206 OA
BRANCH  27  30
HETATM   30  N   UNL N   1     -30.409 -10.837 -14.359  0.00  0.00    -0.203 NA
HETATM   31  C   UNL N   1     -31.804 -11.253 -14.141  0.00  0.00     0.135 C 
HETATM   32  C   UNL N   1     -32.404 -10.466 -12.970  0.00  0.00     0.250 C 
HETATM   33  N   UNL N   1     -32.349  -9.015 -13.243  0.00  0.00    -0.073 N 
HETATM   34  C   UNL N   1     -30.953  -8.594 -13.498  0.00  0.00     0.250 C 
HETATM   35  C   UNL N   1     -32.906  -8.263 -12.108  0.00  0.00     0.269 C 
HETATM   36  H   UNL N   1     -32.931  -8.802 -14.089  0.00  0.00     0.279 HD
HETATM   37  C   UNL N   1     -30.362  -9.395 -14.662  0.00  0.00     0.135 C 
ENDBRANCH  27  30
ENDBRANCH   1  27
TORSDOF 7
ENDMDL
MODEL 9
REMARK VINA RESULT:      -8.0      5.166      8.931
REMARK  7 active torsions:
REMARK  status: ('A' for Active; 'I' for Inactive)
REMARK    1  A    between atoms: S_1  and  N_6 
REMARK    2  A    between atoms: S_1  and  C_18 
REMARK    3  A    between atoms: O_4  and  C_23 
REMARK    4  A    between atoms: O_4  and  C_34 
REMARK    5  A    between atoms: C_21  and  C_24 
REMARK    6  A    between atoms: C_28  and  C_29 
REMARK    7  A    between atoms: C_29  and  C_31 
ROOT
HETATM    1  C   UNL N   1     -32.419 -13.506 -13.836  0.00  0.00     0.075 A 
HETATM    2  C   UNL N   1     -32.218 -12.157 -13.555  0.00  0.00     0.042 A 
HETATM    3  C   UNL N   1     -33.231 -11.405 -12.962  0.00  0.00     0.043 A 
HETATM    4  C   UNL N   1     -33.636 -14.118 -13.523  0.00  0.00     0.027 A 
HETATM    5  C   UNL N   1     -34.443 -12.018 -12.603  0.00  0.00     0.082 A 
HETATM    6  C   UNL N   1     -34.646 -13.381 -12.899  0.00  0.00     0.039 A 
ENDROOT
BRANCH   3   7
HETATM    7  C   UNL N   1     -32.992  -9.993 -12.644  0.00  0.00     0.121 A 
HETATM    8  N   UNL N   1     -32.225  -9.211 -13.480  0.00  0.00    -0.307 N 
HETATM    9  C   UNL N   1     -31.950  -7.898 -13.159  0.00  0.00     0.277 A 
HETATM   10  H   UNL N   1     -31.814  -9.626 -14.347  0.00  0.00     0.170 HD
HETATM   11  O   UNL N   1     -31.242  -7.217 -13.881  0.00  0.00    -0.265 OA
HETATM   12  C   UNL N   1     -32.507  -7.384 -11.995  0.00  0.00     0.147 A 
HETATM   13  N   UNL N   1     -32.430  -6.160 -11.431  0.00  0.00    -0.289 N 
HETATM   14  C   UNL N   1     -33.290  -8.167 -11.223  0.00  0.00     0.092 A 
HETATM   15  N   UNL N   1     -33.169  -6.153 -10.323  0.00  0.00    -0.300 N 
HETATM   16  C   UNL N   1     -31.680  -5.011 -11.922  0.00  0.00     0.178 C 
HETATM   17  C   UNL N   1     -33.722  -7.384 -10.183  0.00  0.00     0.055 A 
ATOM     18  HN  UNL N   1     -33.295  -5.361  -9.692  1.00  0.00     0.187 HD
HETATM   19  N   UNL N   1     -33.528  -9.467 -11.502  0.00  0.00    -0.338 N 
ATOM     20  HN  UNL N   1     -34.094 -10.040 -10.878  1.00  0.00     0.167 HD
BRANCH  17  21
HETATM   21  C   UNL N   1     -34.672  -7.783  -9.094  0.00  0.00     0.061 C 
BRANCH  21  22
HETATM   22  C   UNL N   1     -33.966  -8.530  -7.962  0.00  0.00     0.002 C 
HETATM   23  C   UNL N   1     -34.388 -10.002  -7.926  0.00  0.00     0.005 C 
ENDBRANCH  21  22
ENDBRANCH  17  21
ENDBRANCH   3   7
BRANCH   5  24
HETATM   24  O   UNL N   1     -35.342 -11.300 -11.885  0.00  0.00    -0.351 OA
BRANCH  24  25
HETATM   25  C   UNL N   1     -36.610 -11.768 -11.598  0.00  0.00     0.171 C 
HETATM   26  C   UNL N   1     -36.967 -11.408 -10.164  0.00  0.00     0.034 C 
ENDBRANCH  24  25
ENDBRANCH   5  24
BRANCH   1  27
HETATM   27  S   UNL N   1     -31.064 -14.457 -14.497  0.00  0.00     0.243 S 
HETATM   28  O   UNL N   1     -30.804 -14.254 -15.998  0.00  0.00    -0.206 OA
HETATM   29  O   UNL N   1     -29.705 -14.103 -13.872  0.00  0.00    -0.206 OA
BRANCH  27  30
HETATM   30  N   UNL N   1     -31.244 -16.208 -14.256  0.00  0.00    -0.203 NA
HETATM   31  C   UNL N   1     -30.455 -16.608 -13.080  0.00  0.00     0.135 C 
HETATM   32  C   UNL N   1     -30.561 -18.123 -12.873  0.00  0.00     0.250 C 
HETATM   33  N   UNL N   1     -30.076 -18.841 -14.071  0.00  0.00    -0.073 N 
HETATM   34  C   UNL N   1     -30.841 -18.420 -15.265  0.00  0.00     0.250 C 
HETATM   35  C   UNL N   1     -30.199 -20.294 -13.876  0.00  0.00     0.269 C 
HETATM   36  H   UNL N   1     -29.062 -18.618 -14.217  0.00  0.00     0.279 HD
HETATM   37  C   UNL N   1     -30.738 -16.903 -15.454  0.00  0.00     0.135 C 
ENDBRANCH  27  30
ENDBRANCH   1  27
TORSDOF 7
ENDMDL
