MODEL 1
REMARK VINA RESULT:    -6.484      0.000      0.000
REMARK INTER + INTRA:          -8.352
REMARK INTER:                  -7.811
REMARK INTRA:                  -0.541
REMARK UNBOUND:                -0.541
REMARK  5 active torsions:
REMARK  status: ('A' for Active; 'I' for Inactive)
REMARK    1  A    between atoms: C7_9  and  C18_24 
REMARK    2  A    between atoms: C8_10  and  O2_11 
REMARK    3  A    between atoms: C12_15  and  N2_16 
REMARK    4  A    between atoms: C18_24  and  O3_25 
REMARK    5  A    between atoms: C18_24  and  O4_26 
ROOT
HETATM    1  C1  LEV     1      29.249 -50.098  -8.301  1.00  0.00     0.045 C 
HETATM    2  C2  LEV     1      27.729 -50.105  -8.473  1.00  0.00     0.243 C 
HETATM    3  C3  LEV     1      27.029 -49.948  -7.097  1.00  0.00     0.203 C 
HETATM    4  O1  LEV     1      27.167 -48.648  -6.553  1.00  0.00    -0.379 OA
HETATM    5  C4  LEV     1      26.879 -47.603  -7.479  1.00  0.00     0.191 C 
HETATM    6  C5  LEV     1      26.377 -48.083  -8.868  1.00  0.00     0.261 C 
HETATM    7  N1  LEV     1      27.355 -49.030  -9.433  1.00  0.00     0.103 N 
HETATM    8  C6  LEV     1      26.867 -49.584 -10.712  1.00  0.00     0.285 C 
HETATM    9  C7  LEV     1      26.679 -48.458 -11.752  1.00  0.00     0.098 C 
HETATM   10  C8  LEV     1      25.714 -47.374 -11.202  1.00  0.00     0.135 C 
HETATM   11  C9  LEV     1      26.187 -46.876  -9.815  1.00  0.00     0.054 C 
HETATM   12  C10 LEV     1      25.182 -45.873  -9.202  1.00  0.00     0.049 C 
HETATM   13  C11 LEV     1      25.640 -45.405  -7.811  1.00  0.00     0.206 C 
HETATM   14  C12 LEV     1      25.848 -46.625  -6.869  1.00  0.00     0.287 C 
HETATM   15  F1  LEV     1      26.807 -44.675  -7.965  1.00  0.00    -0.247 F 
ENDROOT
BRANCH  14  16
HETATM   16  N2  LEV     1      26.191 -46.282  -5.460  1.00  0.00     0.102 N 
HETATM   17  C13 LEV     1      26.417 -44.851  -5.186  1.00  0.00     0.303 C 
HETATM   18  C14 LEV     1      27.002 -44.687  -3.777  1.00  0.00     0.302 C 
HETATM   19  N3  LEV     1      26.146 -45.299  -2.739  1.00  0.00     0.087 N 
HETATM   20  C15 LEV     1      25.786 -46.695  -3.067  1.00  0.00     0.302 C 
HETATM   21  C17 LEV     1      24.966 -44.476  -2.422  1.00  0.00     0.310 C 
HETATM   22  C16 LEV     1      25.231 -46.842  -4.491  1.00  0.00     0.303 C 
ENDBRANCH  14  16
BRANCH  10  23
HETATM   23  O2  LEV     1      25.602 -46.298 -12.103  1.00  0.00    -0.395 OA
HETATM   24  H6  LEV     1      25.143 -45.555 -11.629  1.00  0.00     0.210 HD
ENDBRANCH  10  23
BRANCH   9  25
HETATM   25  C18 LEV     1      26.189 -49.016 -13.111  1.00  0.00     0.262 C 
BRANCH  25  26
HETATM   26  O3  LEV     1      26.688 -48.233 -14.162  1.00  0.00    -0.371 OA
HETATM   27  H12 LEV     1      26.596 -47.287 -13.877  1.00  0.00     0.212 HD
ENDBRANCH  25  26
BRANCH  25  28
HETATM   28  O4  LEV     1      24.785 -49.017 -13.161  1.00  0.00    -0.371 OA
HETATM   29  H20 LEV     1      24.531 -48.909 -14.115  1.00  0.00     0.212 HD
ENDBRANCH  25  28
ENDBRANCH   9  25
TORSDOF 5
ENDMDL
