MODEL 1
REMARK VINA RESULT:    -6.327      0.000      0.000
REMARK INTER + INTRA:         -15.508
REMARK INTER:                 -12.060
REMARK INTRA:                  -3.447
REMARK UNBOUND:                -3.447
REMARK  22 active torsions:
REMARK  status: ('A' for Active; 'I' for Inactive)
REMARK    1  A    between atoms: C2_2  and  N6_42 
REMARK    2  A    between atoms: C3_3  and  O13_41 
REMARK    3  A    between atoms: C4_4  and  O5_20 
REMARK    4  A    between atoms: C5_5  and  O1_8 
REMARK    5  A    between atoms: C6_6  and  N1_7 
REMARK    6  A    between atoms: O1_8  and  C7_9 
REMARK    7  A    between atoms: C8_10  and  N3_19 
REMARK    8  A    between atoms: C9_11  and  O4_18 
REMARK    9  A    between atoms: C10_12  and  O3_17 
REMARK   10  A    between atoms: C11_13  and  C12_15 
REMARK   11  A    between atoms: C12_15  and  N2_16 
REMARK   12  A    between atoms: O5_20  and  C13_21 
REMARK   13  A    between atoms: C14_22  and  O12_40 
REMARK   14  A    between atoms: C15_23  and  O8_28 
REMARK   15  A    between atoms: C16_24  and  C17_26 
REMARK   16  A    between atoms: C17_26  and  O7_27 
REMARK   17  A    between atoms: O8_28  and  C18_29 
REMARK   18  A    between atoms: C19_30  and  N5_39 
REMARK   19  A    between atoms: C20_31  and  O11_38 
REMARK   20  A    between atoms: C21_32  and  O10_37 
REMARK   21  A    between atoms: C22_33  and  C23_35 
REMARK   22  A    between atoms: C23_35  and  N4_36 
ROOT
HETATM    1  C1  NEO     1       9.879 -29.325  -0.878  1.00  0.00     0.076 C 
HETATM    2  C2  NEO     1       9.205 -28.749  -2.133  1.00  0.00     0.251 C 
HETATM    3  C3  NEO     1       9.782 -29.403  -3.408  1.00  0.00     0.182 C 
HETATM    4  C4  NEO     1       9.617 -30.937  -3.352  1.00  0.00     0.186 C 
HETATM    5  C5  NEO     1      10.308 -31.524  -2.100  1.00  0.00     0.189 C 
HETATM    6  C6  NEO     1       9.736 -30.859  -0.816  1.00  0.00     0.251 C 
ENDROOT
BRANCH   4   7
HETATM    7  O5  NEO     1      10.208 -31.506  -4.513  1.00  0.00    -0.348 OA
BRANCH   7   8
HETATM    8  C13 NEO     1       9.236 -31.865  -5.480  1.00  0.00     0.292 C 
HETATM    9  C14 NEO     1       9.722 -31.475  -6.868  1.00  0.00     0.205 C 
HETATM   10  C15 NEO     1       9.001 -32.467  -7.751  1.00  0.00     0.189 C 
HETATM   11  C16 NEO     1       8.878 -33.680  -6.816  1.00  0.00     0.180 C 
HETATM   12  O6  NEO     1       9.058 -33.265  -5.475  1.00  0.00    -0.348 OA
BRANCH   9  13
HETATM   13  O12 NEO     1       9.464 -30.130  -7.202  1.00  0.00    -0.388 OA
HETATM   14  H43 NEO     1       9.474 -30.036  -8.190  1.00  0.00     0.210 HD
ENDBRANCH   9  13
BRANCH  10  15
HETATM   15  O8  NEO     1       7.691 -32.007  -8.055  1.00  0.00    -0.348 OA
BRANCH  15  16
HETATM   16  C18 NEO     1       7.545 -31.728  -9.432  1.00  0.00     0.296 C 
HETATM   17  C19 NEO     1       6.292 -30.841  -9.624  1.00  0.00     0.303 C 
HETATM   18  C20 NEO     1       6.023 -30.601 -11.127  1.00  0.00     0.187 C 
HETATM   19  C21 NEO     1       6.102 -31.916 -11.932  1.00  0.00     0.179 C 
HETATM   20  C22 NEO     1       7.381 -32.698 -11.546  1.00  0.00     0.183 C 
HETATM   21  O9  NEO     1       7.398 -32.944 -10.150  1.00  0.00    -0.349 OA
BRANCH  17  22
HETATM   22  N5  NEO     1       5.107 -31.420  -8.976  1.00  0.00     0.090 N 
HETATM   23  H41 NEO     1       4.236 -30.996  -9.367  1.00  0.00     0.313 HD
HETATM   24  H42 NEO     1       5.073 -32.444  -9.192  1.00  0.00     0.313 HD
ENDBRANCH  17  22
BRANCH  18  25
HETATM   25  O11 NEO     1       6.965 -29.694 -11.640  1.00  0.00    -0.391 OA
HETATM   26  H40 NEO     1       7.853 -29.973 -11.297  1.00  0.00     0.210 HD
ENDBRANCH  18  25
BRANCH  19  27
HETATM   27  O10 NEO     1       4.965 -32.706 -11.690  1.00  0.00    -0.390 OA
HETATM   28  H39 NEO     1       5.290 -33.579 -11.350  1.00  0.00     0.210 HD
ENDBRANCH  19  27
BRANCH  20  29
HETATM   29  C23 NEO     1       7.485 -34.054 -12.277  1.00  0.00     0.301 C 
BRANCH  29  30
HETATM   30  N4  NEO     1       6.883 -35.151 -11.521  1.00  0.00     0.080 N 
HETATM   31  H37 NEO     1       7.482 -36.003 -11.611  1.00  0.00     0.312 HD
HETATM   32  H38 NEO     1       6.825 -34.892 -10.510  1.00  0.00     0.312 HD
ENDBRANCH  29  30
ENDBRANCH  20  29
ENDBRANCH  15  16
ENDBRANCH  10  15
BRANCH  11  33
HETATM   33  C17 NEO     1       9.887 -34.791  -7.156  1.00  0.00     0.198 C 
BRANCH  33  34
HETATM   34  O7  NEO     1       9.727 -35.897  -6.307  1.00  0.00    -0.398 OA
HETATM   35  H29 NEO     1      10.057 -36.692  -6.801  1.00  0.00     0.209 HD
ENDBRANCH  33  34
ENDBRANCH  11  33
ENDBRANCH   7   8
ENDBRANCH   4   7
BRANCH   3  36
HETATM   36  O13 NEO     1       9.104 -28.898  -4.530  1.00  0.00    -0.391 OA
HETATM   37  H44 NEO     1       8.176 -29.251  -4.495  1.00  0.00     0.210 HD
ENDBRANCH   3  36
BRANCH   5  38
HETATM   38  O1  NEO     1      10.040 -32.918  -2.096  1.00  0.00    -0.349 OA
BRANCH  38  39
HETATM   39  C7  NEO     1      11.169 -33.713  -1.745  1.00  0.00     0.296 C 
HETATM   40  C8  NEO     1      11.411 -34.800  -2.808  1.00  0.00     0.303 C 
HETATM   41  C9  NEO     1      10.229 -35.788  -2.822  1.00  0.00     0.187 C 
HETATM   42  C10 NEO     1       9.928 -36.302  -1.398  1.00  0.00     0.179 C 
HETATM   43  C11 NEO     1       9.807 -35.108  -0.417  1.00  0.00     0.183 C 
HETATM   44  O2  NEO     1      10.982 -34.308  -0.471  1.00  0.00    -0.349 OA
BRANCH  40  45
HETATM   45  N3  NEO     1      11.584 -34.187  -4.128  1.00  0.00     0.090 N 
HETATM   46  H21 NEO     1      10.942 -33.363  -4.198  1.00  0.00     0.313 HD
HETATM   47  H22 NEO     1      12.552 -33.798  -4.183  1.00  0.00     0.313 HD
ENDBRANCH  40  45
BRANCH  41  48
HETATM   48  O4  NEO     1      10.479 -36.859  -3.699  1.00  0.00    -0.391 OA
HETATM   49  H20 NEO     1       9.941 -36.708  -4.519  1.00  0.00     0.210 HD
ENDBRANCH  41  48
BRANCH  42  50
HETATM   50  O3  NEO     1       8.729 -37.032  -1.422  1.00  0.00    -0.390 OA
HETATM   51  H19 NEO     1       8.841 -37.793  -0.793  1.00  0.00     0.210 HD
ENDBRANCH  42  50
BRANCH  43  52
HETATM   52  C12 NEO     1       9.643 -35.575   1.049  1.00  0.00     0.301 C 
BRANCH  52  53
HETATM   53  N2  NEO     1       8.246 -35.689   1.469  1.00  0.00     0.080 N 
HETATM   54  H17 NEO     1       7.690 -36.159   0.721  1.00  0.00     0.312 HD
HETATM   55  H18 NEO     1       7.843 -34.739   1.640  1.00  0.00     0.312 HD
ENDBRANCH  52  53
ENDBRANCH  43  52
ENDBRANCH  38  39
ENDBRANCH   5  38
BRANCH   2  56
HETATM   56  N6  NEO     1       9.383 -27.294  -2.155  1.00  0.00     0.085 N 
HETATM   57  H45 NEO     1       8.714 -26.853  -1.482  1.00  0.00     0.313 HD
HETATM   58  H46 NEO     1      10.352 -27.061  -1.831  1.00  0.00     0.313 HD
ENDBRANCH   2  56
BRANCH   6  59
HETATM   59  N1  NEO     1      10.402 -31.376   0.381  1.00  0.00     0.085 N 
HETATM   60  H8  NEO     1       9.691 -31.532   1.133  1.00  0.00     0.313 HD
HETATM   61  H9  NEO     1      10.833 -32.303   0.158  1.00  0.00     0.313 HD
ENDBRANCH   6  59
TORSDOF 22
ENDMDL
