MODEL 1
REMARK VINA RESULT:    -6.413      0.000      0.000
REMARK INTER + INTRA:         -12.629
REMARK INTER:                 -10.538
REMARK INTRA:                  -2.092
REMARK UNBOUND:                -2.092
REMARK  16 active torsions:
REMARK  status: ('A' for Active; 'I' for Inactive)
REMARK    1  A    between atoms: C2_2  and  N5_32 
REMARK    2  A    between atoms: C3_3  and  O7_21 
REMARK    3  A    between atoms: C4_4  and  O6_20 
REMARK    4  A    between atoms: C5_5  and  O1_8 
REMARK    5  A    between atoms: C6_6  and  N1_7 
REMARK    6  A    between atoms: O1_8  and  C7_9 
REMARK    7  A    between atoms: C8_10  and  O5_19 
REMARK    8  A    between atoms: C9_11  and  N2_18 
REMARK    9  A    between atoms: C10_12  and  O4_17 
REMARK   10  A    between atoms: C11_13  and  C12_15 
REMARK   11  A    between atoms: C12_15  and  O3_16 
REMARK   12  A    between atoms: O7_21  and  C13_22 
REMARK   13  A    between atoms: C14_23  and  N4_31 
REMARK   14  A    between atoms: C16_25  and  O9_30 
REMARK   15  A    between atoms: C17_26  and  C18_28 
REMARK   16  A    between atoms: C18_28  and  N3_29 
ROOT
HETATM    1  C1  TOB     1       8.499 -31.273  -4.073  1.00  0.00     0.076 C 
HETATM    2  C2  TOB     1       9.057 -30.181  -5.016  1.00  0.00     0.251 C 
HETATM    3  C3  TOB     1      10.599 -30.034  -4.934  1.00  0.00     0.189 C 
HETATM    4  C4  TOB     1      11.328 -31.392  -5.029  1.00  0.00     0.180 C 
HETATM    5  C5  TOB     1      10.813 -32.422  -3.984  1.00  0.00     0.189 C 
HETATM    6  C6  TOB     1       9.279 -32.610  -4.038  1.00  0.00     0.251 C 
ENDROOT
BRANCH   5   7
HETATM    7  O1  TOB     1      11.155 -32.010  -2.668  1.00  0.00    -0.348 OA
BRANCH   7   8
HETATM    8  C7  TOB     1      10.772 -32.950  -1.673  1.00  0.00     0.291 C 
HETATM    9  C8  TOB     1      10.136 -32.190  -0.482  1.00  0.00     0.208 C 
HETATM   10  C9  TOB     1      10.177 -33.027   0.829  1.00  0.00     0.282 C 
HETATM   11  C10 TOB     1      10.364 -34.521   0.516  1.00  0.00     0.184 C 
HETATM   12  C11 TOB     1      11.654 -34.703  -0.335  1.00  0.00     0.179 C 
HETATM   13  O2  TOB     1      11.932 -33.641  -1.246  1.00  0.00    -0.349 OA
BRANCH   9  14
HETATM   14  O5  TOB     1      10.753 -30.942  -0.278  1.00  0.00    -0.388 OA
HETATM   15  H21 TOB     1      11.323 -31.018   0.532  1.00  0.00     0.210 HD
ENDBRANCH   9  14
BRANCH  10  16
HETATM   16  N2  TOB     1       8.968 -32.818   1.631  1.00  0.00     0.088 N 
HETATM   17  H19 TOB     1       9.184 -33.055   2.627  1.00  0.00     0.313 HD
HETATM   18  H20 TOB     1       8.698 -31.808   1.599  1.00  0.00     0.313 HD
ENDBRANCH  10  16
BRANCH  11  19
HETATM   19  O4  TOB     1      10.486 -35.258   1.707  1.00  0.00    -0.391 OA
HETATM   20  H18 TOB     1      11.340 -34.984   2.132  1.00  0.00     0.210 HD
ENDBRANCH  11  19
BRANCH  12  21
HETATM   21  C12 TOB     1      11.703 -36.058  -1.058  1.00  0.00     0.198 C 
BRANCH  21  22
HETATM   22  O3  TOB     1      10.496 -36.758  -0.917  1.00  0.00    -0.398 OA
HETATM   23  H17 TOB     1      10.728 -37.705  -0.731  1.00  0.00     0.209 HD
ENDBRANCH  21  22
ENDBRANCH  12  21
ENDBRANCH   7   8
ENDBRANCH   5   7
BRANCH   4  24
HETATM   24  O6  TOB     1      11.234 -31.905  -6.332  1.00  0.00    -0.390 OA
HETATM   25  H22 TOB     1      10.605 -31.319  -6.830  1.00  0.00     0.210 HD
ENDBRANCH   4  24
BRANCH   6  26
HETATM   26  N1  TOB     1       8.879 -33.541  -5.100  1.00  0.00     0.085 N 
HETATM   27  H8  TOB     1       8.688 -33.006  -5.978  1.00  0.00     0.313 HD
HETATM   28  H9  TOB     1       9.625 -34.235  -5.304  1.00  0.00     0.313 HD
ENDBRANCH   6  26
BRANCH   3  29
HETATM   29  O7  TOB     1      10.977 -29.419  -3.708  1.00  0.00    -0.349 OA
BRANCH  29  30
HETATM   30  C13 TOB     1      10.020 -28.482  -3.230  1.00  0.00     0.293 C 
HETATM   31  C14 TOB     1      10.511 -27.044  -3.529  1.00  0.00     0.275 C 
HETATM   32  C15 TOB     1       9.836 -26.015  -2.588  1.00  0.00     0.074 C 
HETATM   33  C16 TOB     1       8.513 -26.551  -2.028  1.00  0.00     0.151 C 
HETATM   34  C17 TOB     1       8.757 -27.918  -1.317  1.00  0.00     0.181 C 
HETATM   35  O8  TOB     1       9.876 -28.640  -1.830  1.00  0.00    -0.349 OA
BRANCH  31  36
HETATM   36  N4  TOB     1      11.970 -26.957  -3.426  1.00  0.00     0.087 N 
HETATM   37  H34 TOB     1      12.395 -27.410  -4.269  1.00  0.00     0.313 HD
HETATM   38  H35 TOB     1      12.261 -25.951  -3.423  1.00  0.00     0.313 HD
ENDBRANCH  31  36
BRANCH  33  39
HETATM   39  O9  TOB     1       7.976 -25.628  -1.114  1.00  0.00    -0.393 OA
HETATM   40  H33 TOB     1       7.164 -26.047  -0.726  1.00  0.00     0.210 HD
ENDBRANCH  33  39
BRANCH  34  41
HETATM   41  C18 TOB     1       7.508 -28.828  -1.319  1.00  0.00     0.301 C 
BRANCH  41  42
HETATM   42  N3  TOB     1       7.586 -29.890  -0.316  1.00  0.00     0.080 N 
HETATM   43  H31 TOB     1       7.261 -30.791  -0.737  1.00  0.00     0.312 HD
HETATM   44  H32 TOB     1       8.580 -30.008  -0.017  1.00  0.00     0.312 HD
ENDBRANCH  41  42
ENDBRANCH  34  41
ENDBRANCH  29  30
ENDBRANCH   3  29
BRANCH   2  45
HETATM   45  N5  TOB     1       8.600 -30.329  -6.402  1.00  0.00     0.085 N 
HETATM   46  H36 TOB     1       7.787 -29.714  -6.603  1.00  0.00     0.313 HD
HETATM   47  H37 TOB     1       9.372 -30.046  -7.048  1.00  0.00     0.313 HD
ENDBRANCH   2  45
TORSDOF 16
ENDMDL
