MODEL 1
REMARK VINA RESULT:    -7.235      0.000      0.000
REMARK INTER + INTRA:         -14.432
REMARK INTER:                 -12.099
REMARK INTRA:                  -2.333
REMARK UNBOUND:                -2.333
REMARK  16 active torsions:
REMARK  status: ('A' for Active; 'I' for Inactive)
REMARK    1  A    between atoms: C3_3  and  C20_33 
REMARK    2  A    between atoms: C5_7  and  N2_10 
REMARK    3  A    between atoms: C6_8  and  O1_9 
REMARK    4  A    between atoms: N2_10  and  C7_11 
REMARK    5  A    between atoms: C7_11  and  O2_12 
REMARK    6  A    between atoms: C7_11  and  C8_13 
REMARK    7  A    between atoms: C8_13  and  C9_14 
REMARK    8  A    between atoms: C8_13  and  N3_20 
REMARK    9  A    between atoms: N3_20  and  C15_21 
REMARK   10  A    between atoms: C15_21  and  O3_22 
REMARK   11  A    between atoms: C15_21  and  N4_23 
REMARK   12  A    between atoms: C18_27  and  O4_28 
REMARK   13  A    between atoms: S2_29  and  O5_30 
REMARK   14  A    between atoms: S2_29  and  O6_31 
REMARK   15  A    between atoms: C20_33  and  O7_34 
REMARK   16  A    between atoms: C20_33  and  O8_35 
ROOT
HETATM    1  C8  MEZ     1      -6.410 -51.112  -4.351  1.00  0.00     0.288 C 
ENDROOT
BRANCH   1   2
HETATM    2  C7  MEZ     1      -7.802 -50.522  -4.774  1.00  0.00     0.388 C 
BRANCH   2   3
HETATM    3  N2  MEZ     1      -7.862 -50.215  -6.216  1.00  0.00     0.126 N 
HETATM    4  H7  MEZ     1      -8.818 -50.415  -6.591  1.00  0.00     0.320 HD
BRANCH   3   5
HETATM    5  C5  MEZ     1      -6.797 -50.844  -7.025  1.00  0.00     0.325 A 
HETATM    6  C4  MEZ     1      -7.215 -52.005  -7.940  1.00  0.00     0.326 A 
HETATM    7  N1  MEZ     1      -7.018 -51.225  -9.168  1.00  0.00     0.146 N 
HETATM    8  S1  MEZ     1      -8.920 -52.644  -7.805  1.00  0.00    -0.119 SA
HETATM    9  C3  MEZ     1      -8.323 -51.046  -9.848  1.00  0.00     0.299 C 
HETATM   10  C6  MEZ     1      -6.535 -50.100  -8.331  1.00  0.00     0.395 A 
HETATM   11  C2  MEZ     1      -9.188 -52.304  -9.562  1.00  0.00     0.039 C 
HETATM   12  C1  MEZ     1      -8.749 -53.546 -10.365  1.00  0.00     0.029 C 
HETATM   13  C21 MEZ     1     -10.693 -52.054  -9.771  1.00  0.00     0.029 C 
BRANCH   9  14
HETATM   14  C20 MEZ     1      -8.065 -50.759 -11.350  1.00  0.00     0.289 C 
BRANCH  14  15
HETATM   15  O7  MEZ     1      -6.699 -50.917 -11.637  1.00  0.00    -0.369 OA
HETATM   16  H18 MEZ     1      -6.250 -51.124 -10.776  1.00  0.00     0.212 HD
ENDBRANCH  14  15
BRANCH  14  17
HETATM   17  O8  MEZ     1      -8.474 -49.463 -11.702  1.00  0.00    -0.369 OA
HETATM   18  H22 MEZ     1      -7.652 -48.943 -11.906  1.00  0.00     0.212 HD
ENDBRANCH  14  17
ENDBRANCH   9  14
BRANCH  10  19
HETATM   19  O1  MEZ     1      -7.273 -48.909  -8.454  1.00  0.00    -0.366 OA
HETATM   20  H2  MEZ     1      -7.292 -48.693  -9.422  1.00  0.00     0.212 HD
ENDBRANCH  10  19
ENDBRANCH   3   5
ENDBRANCH   2   3
BRANCH   2  21
HETATM   21  O2  MEZ     1      -8.873 -51.360  -4.401  1.00  0.00    -0.366 OA
HETATM   22  H4  MEZ     1      -9.069 -51.969  -5.159  1.00  0.00     0.212 HD
ENDBRANCH   2  21
ENDBRANCH   1   2
BRANCH   1  23
HETATM   23  C9  MEZ     1      -5.523 -50.165  -3.481  1.00  0.00     0.023 C 
HETATM   24  C10 MEZ     1      -4.317 -49.553  -4.226  1.00  0.00     0.007 C 
HETATM   25  C11 MEZ     1      -3.328 -48.896  -3.242  1.00  0.00     0.000 C 
HETATM   26  C12 MEZ     1      -4.011 -48.299  -1.994  1.00  0.00     0.000 C 
HETATM   27  C13 MEZ     1      -5.457 -47.873  -2.281  1.00  0.00     0.000 C 
HETATM   28  C14 MEZ     1      -6.328 -49.065  -2.732  1.00  0.00     0.007 C 
ENDBRANCH   1  23
BRANCH   1  29
HETATM   29  N3  MEZ     1      -6.569 -52.389  -3.612  1.00  0.00     0.152 N 
HETATM   30  H14 MEZ     1      -7.570 -52.646  -3.444  1.00  0.00     0.322 HD
BRANCH  29  31
HETATM   31  C15 MEZ     1      -5.889 -53.522  -4.263  1.00  0.00     0.600 C 
BRANCH  31  32
HETATM   32  O3  MEZ     1      -5.100 -53.043  -5.327  1.00  0.00    -0.345 OA
HETATM   33  H12 MEZ     1      -4.238 -52.739  -4.942  1.00  0.00     0.214 HD
ENDBRANCH  31  32
BRANCH  31  34
HETATM   34  N4  MEZ     1      -6.902 -54.453  -4.799  1.00  0.00     0.198 N 
HETATM   35  C16 MEZ     1      -7.413 -55.380  -3.796  1.00  0.00     0.304 C 
HETATM   36  C17 MEZ     1      -7.875 -56.593  -4.576  1.00  0.00     0.168 C 
HETATM   37  N5  MEZ     1      -7.243 -56.529  -5.887  1.00  0.00    -0.280 N 
HETATM   38  C18 MEZ     1      -6.430 -55.318  -5.892  1.00  0.00     0.480 C 
HETATM   39  S2  MEZ     1      -7.536 -57.742  -6.583  1.00  0.00     0.045 S 
HETATM   40  C19 MEZ     1      -8.827 -56.503  -8.088  1.00  0.00     0.150 C 
BRANCH  38  41
HETATM   41  O4  MEZ     1      -5.082 -55.688  -5.725  1.00  0.00    -0.352 OA
HETATM   42  H14 MEZ     1      -4.546 -55.113  -6.330  1.00  0.00     0.214 HD
ENDBRANCH  38  41
BRANCH  39  43
HETATM   43  O5  MEZ     1      -5.788 -57.567  -8.524  1.00  0.00    -0.312 OA
HETATM   44  H15 MEZ     1      -6.263 -57.226  -9.323  1.00  0.00     0.230 HD
ENDBRANCH  39  43
BRANCH  39  45
HETATM   45  O6  MEZ     1      -6.085 -58.755  -6.601  1.00  0.00    -0.312 OA
HETATM   46  H16 MEZ     1      -5.514 -58.797  -7.409  1.00  0.00     0.230 HD
ENDBRANCH  39  45
ENDBRANCH  31  34
ENDBRANCH  29  31
ENDBRANCH   1  29
TORSDOF 16
ENDMDL
