MODEL 1
REMARK VINA RESULT:    -6.028      0.000      0.000
REMARK INTER + INTRA:          -7.656
REMARK INTER:                  -7.261
REMARK INTRA:                  -0.395
REMARK UNBOUND:                -0.395
REMARK  5 active torsions:
REMARK  status: ('A' for Active; 'I' for Inactive)
REMARK    1  A    between atoms: C2_2  and  N1_3 
REMARK    2  A    between atoms: C4_5  and  C12_15 
REMARK    3  A    between atoms: C5_6  and  O1_7 
REMARK    4  A    between atoms: C12_15  and  O2_16 
REMARK    5  A    between atoms: C12_15  and  O3_17 
ROOT
HETATM    1  N1  NDX     1      -6.622 -48.987  -2.818  1.00  0.00     0.122 N 
HETATM    2  C3  NDX     1      -6.344 -48.774  -1.384  1.00  0.00     0.287 C 
HETATM    3  C4  NDX     1      -5.097 -47.889  -1.211  1.00  0.00     0.098 C 
HETATM    4  C5  NDX     1      -3.884 -48.584  -1.878  1.00  0.00     0.136 C 
HETATM    5  C6  NDX     1      -4.187 -48.927  -3.357  1.00  0.00     0.079 C 
HETATM    6  C7  NDX     1      -5.516 -49.717  -3.491  1.00  0.00     0.460 C 
HETATM    7  N2  NDX     1      -5.836 -49.925  -4.921  1.00  0.00     0.122 N 
HETATM    8  C8  NDX     1      -4.696 -50.322  -5.779  1.00  0.00     0.219 C 
HETATM    9  C9  NDX     1      -3.471 -50.794  -4.977  1.00  0.00     0.036 C 
HETATM   10  C10 NDX     1      -3.008 -49.706  -3.997  1.00  0.00     0.013 C 
HETATM   11  C11 NDX     1      -5.157 -51.419  -6.739  1.00  0.00     0.042 C 
HETATM   12  H7  NDX     1      -6.230 -49.034  -5.309  1.00  0.00     0.319 HD
ENDROOT
BRANCH   3  13
HETATM   13  C12 NDX     1      -4.867 -47.558   0.288  1.00  0.00     0.262 C 
BRANCH  13  14
HETATM   14  O2  NDX     1      -6.085 -47.474   0.986  1.00  0.00    -0.371 OA
HETATM   15  H12 NDX     1      -6.442 -46.557   0.857  1.00  0.00     0.212 HD
ENDBRANCH  13  14
BRANCH  13  16
HETATM   16  O3  NDX     1      -4.024 -48.507   0.896  1.00  0.00    -0.371 OA
HETATM   17  H12 NDX     1      -4.565 -48.969   1.589  1.00  0.00     0.212 HD
ENDBRANCH  13  16
ENDBRANCH   3  13
BRANCH   4  18
HETATM   18  O1  NDX     1      -2.728 -47.786  -1.786  1.00  0.00    -0.394 OA
HETATM   19  H4  NDX     1      -2.349 -47.703  -2.701  1.00  0.00     0.210 HD
ENDBRANCH   4  18
BRANCH   1  20
HETATM   20  C2  NDX     1      -7.965 -49.586  -3.032  1.00  0.00     0.271 C 
HETATM   21  C1  NDX     1      -8.923 -49.445  -1.842  1.00  0.00     0.037 C 
ENDBRANCH   1  20
TORSDOF 5
ENDMDL
