@<TRIPOS>MOLECULE
*****
 37 40 0 0 0
SMALL
GASTEIGER

@<TRIPOS>ATOM
      1  C9       -33.4832  -14.9203  -18.2423 C.ar    1  VIA1        0.0711
      2  C10      -33.3033  -13.6016  -18.7135 C.ar    1  VIA1        0.1415
      3  C11      -33.9516  -13.1863  -19.8811 C.ar    1  VIA1        0.0384
      4  C12      -34.8239  -14.0300  -20.5581 C.ar    1  VIA1        0.0230
      5  C13      -35.0115  -15.3309  -20.1065 C.ar    1  VIA1        0.1225
      6  C14      -34.3224  -15.7645  -18.9773 C.ar    1  VIA1        0.0260
      7  C7       -32.9283  -15.4284  -17.0472 C.ar    1  VIA1        0.1685
      8  N3       -32.3585  -14.6302  -16.1037 N.ar    1  VIA1       -0.2235
      9  C6       -31.9941  -15.2769  -14.9766 C.ar    1  VIA1        0.1200
     10  C4       -30.9417  -14.9276  -14.0676 C.ar    1  VIA1        0.0974
     11  C5       -31.6958  -16.6677  -15.0661 C.ar    1  VIA1        0.1543
     12  N1       -30.2112  -15.9784  -13.5354 N.ar    1  VIA1       -0.1719
     13  N2       -30.7124  -17.0545  -14.1947 N.ar    1  VIA1       -0.2429
     14  C22      -30.1775  -18.3971  -14.0090 C.3     1  VIA1        0.1539
     15  C8       -32.4166  -17.3979  -16.1319 C.ar    1  VIA1        0.2994
     16  N4       -32.9980  -16.7909  -16.8688 N.ar    1  VIA1       -0.1873
     17  O1       -32.3390  -18.5847  -16.3780 O.2     1  VIA1       -0.2634
     18  C3       -30.9808  -13.5984  -13.3637 C.3     1  VIA1        0.0441
     19  C2       -30.8851  -12.4437  -14.3749 C.3     1  VIA1       -0.0274
     20  C1       -31.6172  -11.1972  -13.8501 C.3     1  VIA1       -0.0612
     21  O4       -32.4567  -12.7070  -18.0821 O.3     1  VIA1       -0.4754
     22  C20      -32.1965  -11.3916  -18.6193 C.3     1  VIA1        0.2055
     23  C21      -32.4511  -10.3593  -17.5127 C.3     1  VIA1        0.0512
     24  S1       -36.3285  -16.3146  -20.7502 S.O2    1  VIA1        0.0634
     25  O2       -36.8814  -15.6802  -21.9143 O.2     1  VIA1       -0.1528
     26  O3       -35.7414  -17.6253  -20.7362 O.2     1  VIA1       -0.1528
     27  N5       -37.3873  -16.2632  -19.5013 N.3     1  VIA1       -0.1527
     28  C15      -37.6722  -14.9540  -18.8736 C.3     1  VIA1        0.1131
     29  C16      -38.2735  -15.1433  -17.4673 C.3     1  VIA1        0.0915
     30  N6       -39.4754  -16.0000  -17.5187 N.3     1  VIA1       -0.2690
     31  C17      -39.1941  -17.3060  -18.1542 C.3     1  VIA1        0.0915
     32  C19      -40.0393  -16.1832  -16.1738 C.3     1  VIA1        0.0897
     33  C18      -38.5817  -17.1301  -19.5609 C.3     1  VIA1        0.1131
     34  H21      -29.8391  -12.2138  -14.5877 H       1  VIA1        0.0311
     35  H13      -31.5483  -10.3835  -14.5746 H       1  VIA1        0.0233
     36  H12      -32.6739  -11.4179  -13.6808 H       1  VIA1        0.0233
     37  H11      -31.1775  -10.8599  -12.9086 H       1  VIA1        0.0233
@<TRIPOS>BOND
     1    25    24    2
     2     4     3   ar
     3     4     5   ar
     4    26    24    2
     5    24     5    1
     6    24    27    1
     7     3     2   ar
     8     5     6   ar
     9     2    21    1
    10     2     1   ar
    11    27    28    1
    12    27    33    1
    13    28    29    1
    14    21    22    1
    15     6     1   ar
    16    22    23    1
    17     1     7    1
    18    33    31    1
    19    29    30    1
    20    16     7   ar
    21    16    15   ar
    22     7     8   ar
    23    31    30    1
    24    30    32    1
    25    17    15    2
    26    15    11   ar
    27     8     9   ar
    28    11     9   ar
    29    11    13   ar
    30     9    10   ar
    31    35    20    1
    32    34    19    1
    33    13    14    1
    34    13    12   ar
    35    10    18    1
    36    10    12   ar
    37    19    20    1
    38    19    18    1
    39    20    36    1
    40    20    37    1
