@<TRIPOS>MOLECULE
*****
   37    40     1     0     0
SMALL
bcc


@<TRIPOS>ATOM
      1 C9         -33.4830   -14.9200   -18.2420 c2         1 VIA      -0.136000
      2 C10        -33.3030   -13.6020   -18.7130 c2         1 VIA       0.362100
      3 C11        -33.9520   -13.1860   -19.8810 c1         1 VIA      -0.286000
      4 C12        -34.8240   -14.0300   -20.5580 c1         1 VIA       0.039000
      5 C13        -35.0110   -15.3310   -20.1070 c2         1 VIA      -0.563100
      6 C14        -34.3220   -15.7640   -18.9770 c1         1 VIA      -0.089000
      7 C7         -32.9280   -15.4280   -17.0470 c2         1 VIA       0.157000
      8 N3         -32.3580   -14.6300   -16.1040 n2         1 VIA      -0.172000
      9 C6         -31.9940   -15.2770   -14.9770 c2         1 VIA      -0.007300
     10 C4         -30.9420   -14.9280   -14.0680 c2         1 VIA       0.371300
     11 C5         -31.6960   -16.6680   -15.0660 c2         1 VIA      -0.457300
     12 N1         -30.2110   -15.9780   -13.5350 n2         1 VIA      -0.056000
     13 N2         -30.7120   -17.0550   -14.1950 na         1 VIA      -0.021400
     14 C22        -30.1770   -18.3970   -14.0090 c1         1 VIA       0.452700
     15 C8         -32.4170   -17.3980   -16.1320 c          1 VIA       0.578100
     16 N4         -32.9980   -16.7910   -16.8690 n2         1 VIA      -0.193000
     17 O1         -32.3390   -18.5850   -16.3780 o          1 VIA      -0.614100
     18 C3         -30.9810   -13.5980   -13.3640 c1         1 VIA      -0.309300
     19 C2         -30.8850   -12.4440   -14.3750 c2         1 VIA       0.022100
     20 C1         -31.6170   -11.1970   -13.8500 c3         1 VIA      -0.013900
     21 O4         -32.4570   -12.7070   -18.0820 os         1 VIA      -0.096700
     22 C20        -32.1970   -11.3920   -18.6190 c1         1 VIA      -0.034400
     23 C21        -32.4510   -10.3590   -17.5130 c1         1 VIA      -0.187000
     24 S1         -36.3280   -16.3150   -20.7500 sy         1 VIA       1.571800
     25 O2         -36.8810   -15.6800   -21.9140 o          1 VIA      -0.569800
     26 O3         -35.7410   -17.6250   -20.7360 o          1 VIA      -0.569800
     27 N5         -37.3870   -16.2630   -19.5010 n3         1 VIA       0.268300
     28 C15        -37.6720   -14.9540   -18.8740 c1         1 VIA      -0.122700
     29 C16        -38.2730   -15.1430   -17.4670 c1         1 VIA       0.031300
     30 N6         -39.4750   -16.0000   -17.5190 n3         1 VIA      -0.425400
     31 C17        -39.1940   -17.3060   -18.1540 c1         1 VIA       0.031300
     32 C19        -40.0390   -16.1830   -16.1740 c1         1 VIA       0.693800
     33 C18        -38.5820   -17.1300   -19.5610 c1         1 VIA      -0.122700
     34 H21        -29.8390   -12.2140   -14.5880 ha         1 VIA       0.244000
     35 H13        -31.5480   -10.3830   -14.5750 hc         1 VIA       0.075033
     36 H12        -32.6740   -11.4180   -13.6810 hc         1 VIA       0.075033
     37 H11        -31.1770   -10.8600   -12.9090 hc         1 VIA       0.075033
@<TRIPOS>BOND
     1    25    24 2   
     2     4     3 ar  
     3     4     5 ar  
     4    26    24 2   
     5    24     5 1   
     6    24    27 1   
     7     3     2 ar  
     8     5     6 ar  
     9     2    21 1   
    10     2     1 ar  
    11    27    28 1   
    12    27    33 1   
    13    28    29 1   
    14    21    22 1   
    15     6     1 ar  
    16    22    23 1   
    17     1     7 1   
    18    33    31 1   
    19    29    30 1   
    20    16     7 ar  
    21    16    15 ar  
    22     7     8 ar  
    23    31    30 1   
    24    30    32 1   
    25    17    15 2   
    26    15    11 ar  
    27     8     9 ar  
    28    11     9 ar  
    29    11    13 ar  
    30     9    10 ar  
    31    35    20 1   
    32    34    19 1   
    33    13    14 1   
    34    13    12 ar  
    35    10    18 1   
    36    10    12 ar  
    37    19    20 1   
    38    19    18 1   
    39    20    36 1   
    40    20    37 1   
@<TRIPOS>SUBSTRUCTURE
     1 VIA         1 TEMP              0 ****  ****    0 ROOT
