@<TRIPOS>MOLECULE
*****
   53    55     1     0     0
SMALL
bcc


@<TRIPOS>ATOM
      1 C1          17.1250    20.4540   -12.4580 c3         1 PEN      -0.090100
      2 N1          13.9670    19.7570   -14.4460 nq         1 PEN      -0.737600
      3 O1          14.2230    19.4560   -17.0520 oh         1 PEN      -0.571800
      4 S1          15.1420    18.5120   -12.4240 ss         1 PEN      -0.328200
      5 C2          16.1850    19.6420   -13.3840 c5         1 PEN       0.049100
      6 N2          14.1330    17.1420   -15.8790 n7         1 PEN      -0.882200
      7 O2          14.3470    15.1600   -17.1290 oh         1 PEN      -0.597800
      8 C3          15.2150    20.5280   -14.2210 c5         1 PEN       0.094500
      9 O3          13.9720    22.6040   -14.5200 oh         1 PEN      -0.613800
     10 C4          13.8770    18.4770   -13.7330 cy         1 PEN       0.191600
     11 O4          14.0890    21.7320   -12.3840 oh         1 PEN      -0.613800
     12 C5          13.2670    18.0130   -15.0320 cy         1 PEN       0.150500
     13 C6          13.4930    19.3820   -15.8260 cy         1 PEN       0.350300
     14 C7          13.8050    15.7080   -15.9370 c3         1 PEN       0.394300
     15 C8          14.2920    14.9400   -14.6800 c3         1 PEN      -0.097400
     16 C9          15.8290    14.9730   -14.4330 c6         1 PEN      -0.063700
     17 C10         16.1510    14.5610   -12.9760 c6         1 PEN      -0.069400
     18 C11         17.6560    14.7440   -12.6520 c6         1 PEN      -0.074400
     19 C12         18.5770    14.5010   -13.8730 c6         1 PEN      -0.076400
     20 C13         17.9380    13.5090   -14.8630 c6         1 PEN      -0.074400
     21 C14         16.6110    14.0690   -15.4350 c6         1 PEN      -0.069400
     22 C15         14.8150    21.8970   -13.6040 c3         1 PEN       0.352900
     23 C16         17.0810    18.8370   -14.3570 c3         1 PEN      -0.090100
     24 H01         17.6940    21.1920   -13.0280 hc         1 PEN       0.052200
     25 H02         16.5650    20.9730   -11.6780 hc         1 PEN       0.052200
     26 H03         17.8350    19.7900   -11.9590 hc         1 PEN       0.052200
     27 H04         14.9940    20.0410   -16.9110 ho         1 PEN       0.417000
     28 H05         14.1800    17.5150   -16.8250 hn         1 PEN       0.404800
     29 H06         14.0490    15.7310   -17.8580 ho         1 PEN       0.411000
     30 H07         15.6870    20.7420   -15.1840 h1         1 PEN       0.093700
     31 H08         14.2090    22.3530   -15.4350 ho         1 PEN       0.413500
     32 H09         12.8830    18.3630   -13.2760 h2         1 PEN       0.104700
     33 H10         13.3360    22.3490   -12.3850 ho         1 PEN       0.413500
     34 H11         12.2240    17.6790   -14.9470 h1         1 PEN       0.077700
     35 H12         12.8540    20.2240   -15.5410 h2         1 PEN       0.107700
     36 H13         12.7130    15.6100   -16.0340 h2         1 PEN       0.040700
     37 H14         13.9530    13.9020   -14.7390 hc         1 PEN       0.053700
     38 H15         13.7850    15.3730   -13.8140 hc         1 PEN       0.053700
     39 H16         16.1770    15.9990   -14.5540 hc         1 PEN       0.053700
     40 H17         15.8710    13.5140   -12.8290 hc         1 PEN       0.042450
     41 H18         15.5630    15.1530   -12.2710 hc         1 PEN       0.042450
     42 H19         17.9260    14.0570   -11.8460 hc         1 PEN       0.037450
     43 H20         17.8300    15.7560   -12.2790 hc         1 PEN       0.037450
     44 H21         19.5460    14.1250   -13.5360 hc         1 PEN       0.039200
     45 H22         18.7590    15.4480   -14.3890 hc         1 PEN       0.039200
     46 H23         17.7460    12.5630   -14.3490 hc         1 PEN       0.037450
     47 H24         18.6290    13.2950   -15.6820 hc         1 PEN       0.037450
     48 H25         16.8340    14.6530   -16.3310 hc         1 PEN       0.042450
     49 H26         15.9950    13.2240   -15.7510 hc         1 PEN       0.042450
     50 H27         15.6950    22.5270   -13.4040 h2         1 PEN       0.110700
     51 H28         17.6940    18.1160   -13.8110 hc         1 PEN       0.052200
     52 H29         16.4830    18.2860   -15.0840 hc         1 PEN       0.052200
     53 H30         17.7490    19.5000   -14.9120 hc         1 PEN       0.052200
@<TRIPOS>BOND
     1    29     7 1   
     2     7    14 1   
     3    27     3 1   
     4     3    13 1   
     5    35    13 1   
     6    28     6 1   
     7    48    21 1   
     8    14    36 1   
     9    14     6 1   
    10    14    15 1   
    11    13    12 1   
    12    13     2 1   
    13     6    12 1   
    14    37    15 1   
    15    49    21 1   
    16    34    12 1   
    17    31     9 1   
    18    21    16 1   
    19    21    20 1   
    20    47    20 1   
    21    12    10 1   
    22    30     8 1   
    23    53    23 1   
    24    52    23 1   
    25    15    16 1   
    26    15    38 1   
    27    39    16 1   
    28    16    17 1   
    29    20    46 1   
    30    20    19 1   
    31     2     8 1   
    32     2    10 1   
    33     9    22 1   
    34    23    51 1   
    35    23     5 1   
    36    45    19 1   
    37     8    22 1   
    38     8     5 1   
    39    10    32 1   
    40    10     4 1   
    41    19    44 1   
    42    19    18 1   
    43    22    50 1   
    44    22    11 1   
    45     5     4 1   
    46     5     1 1   
    47    17    40 1   
    48    17    18 1   
    49    17    41 1   
    50    11    33 1   
    51    18    43 1   
    52    18    42 1   
    53    24     1 1   
    54     1    25 1   
    55     1    26 1   
@<TRIPOS>SUBSTRUCTURE
     1 PEN         1 TEMP              0 ****  ****    0 ROOT
