@<TRIPOS>MOLECULE
*****
 41 42 0 0 0
SMALL
GASTEIGER

@<TRIPOS>ATOM
      1  C1        -5.2198   -8.7378   -3.3035 C.3     1  NDX1       -0.0523
      2  N1        -4.7772   -9.6376   -0.9969 N.3     1  NDX1       -0.2866
      3  O1        -4.8530  -12.8355    1.7584 O.3     1  NDX1       -0.3909
      4  C2        -4.4999   -8.5275   -1.9552 C.3     1  NDX1       -0.0025
      5  N2        -5.3844   -8.0761    0.7714 N.3     1  NDX1       -0.2983
      6  O2        -3.3570  -13.3450   -2.3274 O.3     1  NDX1       -0.3668
      7  C3        -4.0173  -10.8634   -1.3574 C.3     1  NDX1        0.0101
      8  O3        -2.5944  -13.7707   -0.1906 O.3     1  NDX1       -0.3668
      9  C4        -4.4642  -12.0950   -0.5255 C.3     1  NDX1        0.0488
     10  C5        -4.2874  -11.7797    0.9791 C.3     1  NDX1        0.0693
     11  C6        -4.9806  -10.4490    1.3710 C.3     1  NDX1        0.0144
     12  C7        -4.5733   -9.2788    0.4344 C.3     1  NDX1        0.0666
     13  C8        -5.6446   -7.8328    2.2130 C.3     1  NDX1        0.0062
     14  C9        -4.6152   -8.5609    3.1035 C.3     1  NDX1       -0.0373
     15  C10       -4.6653  -10.0868    2.8526 C.3     1  NDX1       -0.0438
     16  C11       -5.6473   -6.3164    2.4854 C.3     1  NDX1       -0.0496
     17  C12       -3.7586  -13.4279   -0.9613 C.3     1  NDX1        0.1595
     18  H01       -6.2912   -8.8832   -3.1444 H       1  NDX1        0.0242
     19  H02       -5.0878   -7.8583   -3.9372 H       1  NDX1        0.0242
     20  H03       -4.8278   -9.6003   -3.8446 H       1  NDX1        0.0242
     21  H04       -4.7270  -12.5880    2.6880 H       1  NDX1        0.2098
     22  H05       -4.8653   -7.5773   -1.5604 H       1  NDX1        0.0424
     23  H06       -3.4226   -8.4292   -2.1164 H       1  NDX1        0.0424
     24  H07       -4.9635   -7.2554    0.3413 H       1  NDX1        0.1237
     25  H08       -3.1140  -12.4050   -2.4780 H       1  NDX1        0.2125
     26  H09       -2.9464  -10.6920   -1.2127 H       1  NDX1        0.0432
     27  H10       -4.1948  -11.0772   -2.4124 H       1  NDX1        0.0432
     28  H11       -2.4810  -14.7520   -0.1850 H       1  NDX1        0.2125
     29  H12       -5.5330  -12.2324   -0.7131 H       1  NDX1        0.0387
     30  H13       -3.2190  -11.6980    1.1986 H       1  NDX1        0.0602
     31  H14       -6.0622  -10.5861    1.2728 H       1  NDX1        0.0354
     32  H15       -3.5098   -9.0373    0.5867 H       1  NDX1        0.0634
     33  H16       -6.6357   -8.2291    2.4527 H       1  NDX1        0.0458
     34  H17       -4.8101   -8.3574    4.1593 H       1  NDX1        0.0280
     35  H18       -3.6120   -8.1864    2.8813 H       1  NDX1        0.0280
     36  H19       -3.7058  -10.5115    3.1577 H       1  NDX1        0.0270
     37  H20       -5.4297  -10.5352    3.4920 H       1  NDX1        0.0270
     38  H21       -4.6745   -5.8780    2.2493 H       1  NDX1        0.0245
     39  H22       -6.4055   -5.8201    1.8751 H       1  NDX1        0.0245
     40  H23       -5.8709   -6.1149    3.5355 H       1  NDX1        0.0245
     41  H24       -4.4596  -14.2711   -0.8613 H       1  NDX1        0.0909
@<TRIPOS>BOND
     1    19     1    1
     2    20     1    1
     3     1    18    1
     4     1     4    1
     5    25     6    1
     6    27     7    1
     7    23     4    1
     8     6    17    1
     9     4    22    1
    10     4     2    1
    11     7    26    1
    12     7     2    1
    13     7     9    1
    14     2    12    1
    15    41    17    1
    16    17     9    1
    17    17     8    1
    18    29     9    1
    19     9    10    1
    20    28     8    1
    21    24     5    1
    22    12    32    1
    23    12     5    1
    24    12    11    1
    25     5    13    1
    26    10    30    1
    27    10    11    1
    28    10     3    1
    29    31    11    1
    30    11    15    1
    31    38    16    1
    32     3    21    1
    33    39    16    1
    34    13    16    1
    35    13    33    1
    36    13    14    1
    37    16    40    1
    38    35    14    1
    39    15    14    1
    40    15    36    1
    41    15    37    1
    42    14    34    1
