MODEL 1
REMARK VINA RESULT:      -9.5      0.000      0.000
REMARK  7 active torsions:
REMARK  status: ('A' for Active; 'I' for Inactive)
REMARK    1  A    between atoms: C2_2  and  C3_3 
REMARK    2  A    between atoms: C3_3  and  C4_4 
REMARK    3  A    between atoms: C7_10  and  C9_14 
REMARK    4  A    between atoms: C10_15  and  O4_30 
REMARK    5  A    between atoms: C13_18  and  S1_20 
REMARK    6  A    between atoms: S1_20  and  N5_23 
REMARK    7  A    between atoms: O4_30  and  C20_31 
ROOT
HETATM    1  C9  VIA     1     -28.323 -21.390 -13.411  1.00  0.00     0.045 A 
HETATM    2  C10 VIA     1     -29.470 -22.213 -13.315  1.00  0.00     0.082 A 
HETATM    3  C11 VIA     1     -30.740 -21.616 -13.311  1.00  0.00     0.039 A 
HETATM    4  C12 VIA     1     -30.886 -20.229 -13.399  1.00  0.00     0.028 A 
HETATM    5  C13 VIA     1     -29.754 -19.423 -13.485  1.00  0.00     0.080 A 
HETATM    6  C14 VIA     1     -28.482 -19.995 -13.516  1.00  0.00     0.043 A 
ENDROOT
BRANCH   1   7
HETATM    7  C7  VIA     1     -26.904 -21.900 -13.392  1.00  0.00     0.144 A 
HETATM    8  N3  VIA     1     -26.650 -23.067 -12.863  1.00  0.00    -0.226 NA
HETATM    9  C6  VIA     1     -25.305 -23.434 -12.906  1.00  0.00     0.119 A 
HETATM   10  C4  VIA     1     -24.676 -24.601 -12.443  1.00  0.00     0.086 A 
HETATM   11  C5  VIA     1     -24.330 -22.658 -13.454  1.00  0.00     0.151 A 
HETATM   12  N1  VIA     1     -23.353 -24.554 -12.691  1.00  0.00    -0.174 NA
HETATM   13  N2  VIA     1     -23.175 -23.359 -13.308  1.00  0.00    -0.266 N 
HETATM   14  C22 VIA     1     -21.856 -22.957 -13.732  1.00  0.00     0.180 C 
HETATM   15  C8  VIA     1     -24.594 -21.393 -14.033  1.00  0.00     0.278 A 
HETATM   16  N4  VIA     1     -25.932 -21.077 -13.951  1.00  0.00    -0.305 N 
HETATM   17  O1  VIA     1     -23.767 -20.654 -14.553  1.00  0.00    -0.265 OA
HETATM   18  H8  VIA     1     -26.200 -20.195 -14.366  1.00  0.00     0.170 HD
BRANCH  10  19
HETATM   19  C3  VIA     1     -25.286 -25.774 -11.756  1.00  0.00     0.063 C 
BRANCH  19  20
HETATM   20  C2  VIA     1     -25.002 -27.108 -12.451  1.00  0.00     0.002 C 
HETATM   21  C1  VIA     1     -26.215 -28.025 -12.503  1.00  0.00     0.005 C 
ENDBRANCH  19  20
ENDBRANCH  10  19
ENDBRANCH   1   7
BRANCH   2  22
HETATM   22  O4  VIA     1     -29.270 -23.566 -13.218  1.00  0.00    -0.351 OA
BRANCH  22  23
HETATM   23  C20 VIA     1     -29.396 -24.225 -11.956  1.00  0.00     0.171 C 
HETATM   24  C21 VIA     1     -29.033 -25.694 -12.075  1.00  0.00     0.034 C 
ENDBRANCH  22  23
ENDBRANCH   2  22
BRANCH   5  25
HETATM   25  S1  VIA     1     -29.928 -17.657 -13.632  1.00  0.00     0.261 S 
HETATM   26  O2  VIA     1     -30.538 -17.179 -12.410  1.00  0.00    -0.200 OA
HETATM   27  O3  VIA     1     -28.651 -17.138 -14.079  1.00  0.00    -0.200 OA
BRANCH  25  28
HETATM   28  N5  VIA     1     -31.038 -17.467 -14.895  1.00  0.00    -0.303 N 
HETATM   29  C15 VIA     1     -31.271 -16.081 -15.387  1.00  0.00     0.165 C 
HETATM   30  C16 VIA     1     -32.538 -16.037 -16.267  1.00  0.00     0.292 C 
HETATM   31  N6  VIA     1     -32.461 -16.981 -17.402  1.00  0.00     0.087 N 
HETATM   32  C17 VIA     1     -32.237 -18.350 -16.886  1.00  0.00     0.292 C 
HETATM   33  C19 VIA     1     -33.688 -16.929 -18.196  1.00  0.00     0.310 C 
HETATM   34  C18 VIA     1     -30.964 -18.442 -16.020  1.00  0.00     0.165 C 
ENDBRANCH  25  28
ENDBRANCH   5  25
TORSDOF 7
ENDMDL
