MODEL 1
REMARK VINA RESULT:      -9.4      0.000      0.000
REMARK  7 active torsions:
REMARK  status: ('A' for Active; 'I' for Inactive)
REMARK    1  A    between atoms: C2_2  and  C3_3 
REMARK    2  A    between atoms: C3_3  and  C4_4 
REMARK    3  A    between atoms: C7_10  and  C9_14 
REMARK    4  A    between atoms: C10_15  and  O4_30 
REMARK    5  A    between atoms: C13_18  and  S1_20 
REMARK    6  A    between atoms: S1_20  and  N5_23 
REMARK    7  A    between atoms: O4_30  and  C20_31 
ROOT
HETATM    1  C9  VIA     1     -27.988 -21.461 -13.380  1.00  0.00     0.045 A 
HETATM    2  C10 VIA     1     -29.081 -22.354 -13.277  1.00  0.00     0.082 A 
HETATM    3  C11 VIA     1     -30.385 -21.837 -13.248  1.00  0.00     0.039 A 
HETATM    4  C12 VIA     1     -30.617 -20.461 -13.317  1.00  0.00     0.028 A 
HETATM    5  C13 VIA     1     -29.538 -19.585 -13.410  1.00  0.00     0.080 A 
HETATM    6  C14 VIA     1     -28.234 -20.078 -13.466  1.00  0.00     0.043 A 
ENDROOT
BRANCH   1   7
HETATM    7  C7  VIA     1     -26.540 -21.883 -13.387  1.00  0.00     0.144 A 
HETATM    8  N3  VIA     1     -26.187 -22.970 -12.756  1.00  0.00    -0.226 NA
HETATM    9  C6  VIA     1     -24.825 -23.262 -12.836  1.00  0.00     0.119 A 
HETATM   10  C4  VIA     1     -24.102 -24.334 -12.290  1.00  0.00     0.086 A 
HETATM   11  C5  VIA     1     -23.929 -22.492 -13.513  1.00  0.00     0.151 A 
HETATM   12  N1  VIA     1     -22.797 -24.238 -12.615  1.00  0.00    -0.174 NA
HETATM   13  N2  VIA     1     -22.726 -23.106 -13.360  1.00  0.00    -0.266 N 
HETATM   14  C22 VIA     1     -21.458 -22.675 -13.896  1.00  0.00     0.180 C 
HETATM   15  C8  VIA     1     -24.302 -21.314 -14.204  1.00  0.00     0.278 A 
HETATM   16  N4  VIA     1     -25.651 -21.069 -14.080  1.00  0.00    -0.305 N 
HETATM   17  O1  VIA     1     -23.550 -20.586 -14.842  1.00  0.00    -0.265 OA
HETATM   18  H8  VIA     1     -25.995 -20.253 -14.568  1.00  0.00     0.170 HD
BRANCH  10  19
HETATM   19  C3  VIA     1     -24.602 -25.461 -11.455  1.00  0.00     0.063 C 
BRANCH  19  20
HETATM   20  C2  VIA     1     -24.963 -26.711 -12.262  1.00  0.00     0.002 C 
HETATM   21  C1  VIA     1     -26.439 -27.071 -12.177  1.00  0.00     0.005 C 
ENDBRANCH  19  20
ENDBRANCH  10  19
ENDBRANCH   1   7
BRANCH   2  22
HETATM   22  O4  VIA     1     -28.797 -23.694 -13.198  1.00  0.00    -0.351 OA
BRANCH  22  23
HETATM   23  C20 VIA     1     -29.333 -24.483 -12.135  1.00  0.00     0.171 C 
HETATM   24  C21 VIA     1     -28.521 -24.300 -10.865  1.00  0.00     0.034 C 
ENDBRANCH  22  23
ENDBRANCH   2  22
BRANCH   5  25
HETATM   25  S1  VIA     1     -29.822 -17.831 -13.534  1.00  0.00     0.261 S 
HETATM   26  O2  VIA     1     -30.458 -17.409 -12.304  1.00  0.00    -0.200 OA
HETATM   27  O3  VIA     1     -28.581 -17.228 -13.975  1.00  0.00    -0.200 OA
BRANCH  25  28
HETATM   28  N5  VIA     1     -30.945 -17.695 -14.793  1.00  0.00    -0.303 N 
HETATM   29  C15 VIA     1     -31.118 -16.347 -15.401  1.00  0.00     0.165 C 
HETATM   30  C16 VIA     1     -32.397 -16.314 -16.262  1.00  0.00     0.292 C 
HETATM   31  N6  VIA     1     -32.388 -17.356 -17.312  1.00  0.00     0.087 N 
HETATM   32  C17 VIA     1     -32.223 -18.685 -16.681  1.00  0.00     0.292 C 
HETATM   33  C19 VIA     1     -33.625 -17.310 -18.090  1.00  0.00     0.310 C 
HETATM   34  C18 VIA     1     -30.941 -18.767 -15.829  1.00  0.00     0.165 C 
ENDBRANCH  25  28
ENDBRANCH   5  25
TORSDOF 7
ENDMDL
