MODEL 1
REMARK VINA RESULT:      -9.3      0.000      0.000
REMARK  7 active torsions:
REMARK  status: ('A' for Active; 'I' for Inactive)
REMARK    1  A    between atoms: C2_2  and  C3_3 
REMARK    2  A    between atoms: C3_3  and  C4_4 
REMARK    3  A    between atoms: C7_10  and  C9_14 
REMARK    4  A    between atoms: C10_15  and  O4_30 
REMARK    5  A    between atoms: C13_18  and  S1_20 
REMARK    6  A    between atoms: S1_20  and  N5_23 
REMARK    7  A    between atoms: O4_30  and  C20_31 
ROOT
HETATM    1  C9  VIA     1     -23.238 -23.799 -12.701  1.00  0.00     0.045 A 
HETATM    2  C10 VIA     1     -22.599 -24.941 -12.163  1.00  0.00     0.082 A 
HETATM    3  C11 VIA     1     -21.199 -25.027 -12.210  1.00  0.00     0.039 A 
HETATM    4  C12 VIA     1     -20.433 -24.006 -12.778  1.00  0.00     0.028 A 
HETATM    5  C13 VIA     1     -21.066 -22.887 -13.314  1.00  0.00     0.080 A 
HETATM    6  C14 VIA     1     -22.455 -22.769 -13.256  1.00  0.00     0.043 A 
ENDROOT
BRANCH   1   7
HETATM    7  C7  VIA     1     -24.731 -23.598 -12.745  1.00  0.00     0.144 A 
HETATM    8  N3  VIA     1     -25.521 -24.607 -12.491  1.00  0.00    -0.226 NA
HETATM    9  C6  VIA     1     -26.880 -24.302 -12.557  1.00  0.00     0.119 A 
HETATM   10  C4  VIA     1     -27.998 -25.124 -12.343  1.00  0.00     0.086 A 
HETATM   11  C5  VIA     1     -27.360 -23.063 -12.854  1.00  0.00     0.151 A 
HETATM   12  N1  VIA     1     -29.137 -24.423 -12.503  1.00  0.00    -0.174 NA
HETATM   13  N2  VIA     1     -28.714 -23.172 -12.812  1.00  0.00    -0.266 N 
HETATM   14  C22 VIA     1     -29.677 -22.125 -13.057  1.00  0.00     0.180 C 
HETATM   15  C8  VIA     1     -26.514 -21.961 -13.127  1.00  0.00     0.278 A 
HETATM   16  N4  VIA     1     -25.187 -22.323 -13.061  1.00  0.00    -0.305 N 
HETATM   17  O1  VIA     1     -26.880 -20.821 -13.387  1.00  0.00    -0.265 OA
HETATM   18  H8  VIA     1     -24.521 -21.580 -13.224  1.00  0.00     0.170 HD
BRANCH  10  19
HETATM   19  C3  VIA     1     -28.032 -26.572 -11.996  1.00  0.00     0.063 C 
BRANCH  19  20
HETATM   20  C2  VIA     1     -27.421 -27.476 -13.070  1.00  0.00     0.002 C 
HETATM   21  C1  VIA     1     -27.192 -28.903 -12.590  1.00  0.00     0.005 C 
ENDBRANCH  19  20
ENDBRANCH  10  19
ENDBRANCH   1   7
BRANCH   2  22
HETATM   22  O4  VIA     1     -23.399 -25.919 -11.630  1.00  0.00    -0.351 OA
BRANCH  22  23
HETATM   23  C20 VIA     1     -23.122 -27.297 -11.887  1.00  0.00     0.171 C 
HETATM   24  C21 VIA     1     -23.699 -27.723 -13.225  1.00  0.00     0.034 C 
ENDBRANCH  22  23
ENDBRANCH   2  22
BRANCH   5  25
HETATM   25  S1  VIA     1     -20.098 -21.563 -14.009  1.00  0.00     0.261 S 
HETATM   26  O2  VIA     1     -20.868 -20.346 -13.868  1.00  0.00    -0.200 OA
HETATM   27  O3  VIA     1     -18.766 -21.670 -13.451  1.00  0.00    -0.200 OA
BRANCH  25  28
HETATM   28  N5  VIA     1     -20.008 -21.953 -15.653  1.00  0.00    -0.303 N 
HETATM   29  C15 VIA     1     -20.120 -20.828 -16.621  1.00  0.00     0.165 C 
HETATM   30  C16 VIA     1     -20.374 -21.375 -18.042  1.00  0.00     0.292 C 
HETATM   31  N6  VIA     1     -19.321 -22.321 -18.470  1.00  0.00     0.087 N 
HETATM   32  C17 VIA     1     -19.235 -23.432 -17.496  1.00  0.00     0.292 C 
HETATM   33  C19 VIA     1     -19.608 -22.837 -19.808  1.00  0.00     0.310 C 
HETATM   34  C18 VIA     1     -18.958 -22.928 -16.065  1.00  0.00     0.165 C 
ENDBRANCH  25  28
ENDBRANCH   5  25
TORSDOF 7
ENDMDL
