MODEL 1
REMARK VINA RESULT:      -7.8      0.000      0.000
REMARK  7 active torsions:
REMARK  status: ('A' for Active; 'I' for Inactive)
REMARK    1  A    between atoms: C2_2  and  C3_3 
REMARK    2  A    between atoms: C3_3  and  C4_4 
REMARK    3  A    between atoms: C7_10  and  C9_14 
REMARK    4  A    between atoms: C10_15  and  O4_30 
REMARK    5  A    between atoms: C13_18  and  S1_20 
REMARK    6  A    between atoms: S1_20  and  N5_23 
REMARK    7  A    between atoms: O4_30  and  C20_31 
ROOT
HETATM    1  C9  VIA     1     -42.466 -33.368 -11.842  1.00  0.00     0.045 A 
HETATM    2  C10 VIA     1     -41.099 -33.052 -12.025  1.00  0.00     0.082 A 
HETATM    3  C11 VIA     1     -40.130 -33.773 -11.312  1.00  0.00     0.039 A 
HETATM    4  C12 VIA     1     -40.494 -34.791 -10.427  1.00  0.00     0.028 A 
HETATM    5  C13 VIA     1     -41.841 -35.093 -10.243  1.00  0.00     0.080 A 
HETATM    6  C14 VIA     1     -42.821 -34.406 -10.961  1.00  0.00     0.043 A 
ENDROOT
BRANCH   1   7
HETATM    7  C7  VIA     1     -43.606 -32.650 -12.520  1.00  0.00     0.144 A 
HETATM    8  N3  VIA     1     -43.856 -31.407 -12.206  1.00  0.00    -0.226 NA
HETATM    9  C6  VIA     1     -44.929 -30.846 -12.900  1.00  0.00     0.119 A 
HETATM   10  C4  VIA     1     -45.472 -29.554 -12.824  1.00  0.00     0.086 A 
HETATM   11  C5  VIA     1     -45.659 -31.521 -13.830  1.00  0.00     0.151 A 
HETATM   12  N1  VIA     1     -46.507 -29.426 -13.677  1.00  0.00    -0.174 NA
HETATM   13  N2  VIA     1     -46.594 -30.641 -14.274  1.00  0.00    -0.266 N 
HETATM   14  C22 VIA     1     -47.609 -30.882 -15.271  1.00  0.00     0.180 C 
HETATM   15  C8  VIA     1     -45.394 -32.867 -14.181  1.00  0.00     0.278 A 
HETATM   16  N4  VIA     1     -44.336 -33.371 -13.457  1.00  0.00    -0.305 N 
HETATM   17  O1  VIA     1     -46.002 -33.525 -15.016  1.00  0.00    -0.265 OA
HETATM   18  H8  VIA     1     -44.074 -34.324 -13.671  1.00  0.00     0.170 HD
BRANCH  10  19
HETATM   19  C3  VIA     1     -45.049 -28.419 -11.957  1.00  0.00     0.063 C 
BRANCH  19  20
HETATM   20  C2  VIA     1     -46.164 -27.888 -11.052  1.00  0.00     0.002 C 
HETATM   21  C1  VIA     1     -46.521 -26.435 -11.335  1.00  0.00     0.005 C 
ENDBRANCH  19  20
ENDBRANCH  10  19
ENDBRANCH   1   7
BRANCH   2  22
HETATM   22  O4  VIA     1     -40.797 -32.036 -12.896  1.00  0.00    -0.351 OA
BRANCH  22  23
HETATM   23  C20 VIA     1     -40.065 -30.894 -12.445  1.00  0.00     0.171 C 
HETATM   24  C21 VIA     1     -40.825 -30.163 -11.352  1.00  0.00     0.034 C 
ENDBRANCH  22  23
ENDBRANCH   2  22
BRANCH   5  25
HETATM   25  S1  VIA     1     -42.317 -36.411  -9.144  1.00  0.00     0.261 S 
HETATM   26  O2  VIA     1     -43.024 -35.812  -8.032  1.00  0.00    -0.200 OA
HETATM   27  O3  VIA     1     -42.938 -37.439  -9.954  1.00  0.00    -0.200 OA
BRANCH  25  28
HETATM   28  N5  VIA     1     -40.841 -37.014  -8.578  1.00  0.00    -0.303 N 
HETATM   29  C15 VIA     1     -40.505 -36.750  -7.152  1.00  0.00     0.165 C 
HETATM   30  C16 VIA     1     -39.011 -37.042  -6.897  1.00  0.00     0.292 C 
HETATM   31  N6  VIA     1     -38.644 -38.427  -7.265  1.00  0.00     0.087 N 
HETATM   32  C17 VIA     1     -38.981 -38.661  -8.687  1.00  0.00     0.292 C 
HETATM   33  C19 VIA     1     -37.219 -38.658  -7.033  1.00  0.00     0.310 C 
HETATM   34  C18 VIA     1     -40.473 -38.402  -8.979  1.00  0.00     0.165 C 
ENDBRANCH  25  28
ENDBRANCH   5  25
TORSDOF 7
ENDMDL
