MODEL 1
REMARK VINA RESULT:      -9.3      0.000      0.000
REMARK  7 active torsions:
REMARK  status: ('A' for Active; 'I' for Inactive)
REMARK    1  A    between atoms: C2_2  and  C3_3 
REMARK    2  A    between atoms: C3_3  and  C4_4 
REMARK    3  A    between atoms: C7_10  and  C9_14 
REMARK    4  A    between atoms: C10_15  and  O4_30 
REMARK    5  A    between atoms: C13_18  and  S1_20 
REMARK    6  A    between atoms: S1_20  and  N5_23 
REMARK    7  A    between atoms: O4_30  and  C20_31 
ROOT
HETATM    1  C9  VIA     1     -23.253 -23.876 -12.696  1.00  0.00     0.045 A 
HETATM    2  C10 VIA     1     -22.648 -25.048 -12.183  1.00  0.00     0.082 A 
HETATM    3  C11 VIA     1     -21.251 -25.171 -12.228  1.00  0.00     0.039 A 
HETATM    4  C12 VIA     1     -20.455 -24.159 -12.770  1.00  0.00     0.028 A 
HETATM    5  C13 VIA     1     -21.055 -23.010 -13.280  1.00  0.00     0.080 A 
HETATM    6  C14 VIA     1     -22.441 -22.855 -13.223  1.00  0.00     0.043 A 
ENDROOT
BRANCH   1   7
HETATM    7  C7  VIA     1     -24.741 -23.634 -12.739  1.00  0.00     0.144 A 
HETATM    8  N3  VIA     1     -25.558 -24.623 -12.494  1.00  0.00    -0.226 NA
HETATM    9  C6  VIA     1     -26.909 -24.279 -12.558  1.00  0.00     0.119 A 
HETATM   10  C4  VIA     1     -28.049 -25.072 -12.353  1.00  0.00     0.086 A 
HETATM   11  C5  VIA     1     -27.353 -23.024 -12.844  1.00  0.00     0.151 A 
HETATM   12  N1  VIA     1     -29.168 -24.337 -12.507  1.00  0.00    -0.174 NA
HETATM   13  N2  VIA     1     -28.710 -23.096 -12.805  1.00  0.00    -0.266 N 
HETATM   14  C22 VIA     1     -29.643 -22.021 -13.041  1.00  0.00     0.180 C 
HETATM   15  C8  VIA     1     -26.476 -21.944 -13.107  1.00  0.00     0.278 A 
HETATM   16  N4  VIA     1     -25.160 -22.343 -13.044  1.00  0.00    -0.305 N 
HETATM   17  O1  VIA     1     -26.810 -20.792 -13.358  1.00  0.00    -0.265 OA
HETATM   18  H8  VIA     1     -24.474 -21.618 -13.199  1.00  0.00     0.170 HD
BRANCH  10  19
HETATM   19  C3  VIA     1     -28.124 -26.521 -12.019  1.00  0.00     0.063 C 
BRANCH  19  20
HETATM   20  C2  VIA     1     -27.489 -27.428 -13.075  1.00  0.00     0.002 C 
HETATM   21  C1  VIA     1     -27.232 -28.842 -12.572  1.00  0.00     0.005 C 
ENDBRANCH  19  20
ENDBRANCH  10  19
ENDBRANCH   1   7
BRANCH   2  22
HETATM   22  O4  VIA     1     -23.477 -26.016 -11.675  1.00  0.00    -0.351 OA
BRANCH  22  23
HETATM   23  C20 VIA     1     -23.262 -27.392 -11.999  1.00  0.00     0.171 C 
HETATM   24  C21 VIA     1     -23.790 -27.708 -13.387  1.00  0.00     0.034 C 
ENDBRANCH  22  23
ENDBRANCH   2  22
BRANCH   5  25
HETATM   25  S1  VIA     1     -20.049 -21.698 -13.941  1.00  0.00     0.261 S 
HETATM   26  O2  VIA     1     -20.774 -20.460 -13.748  1.00  0.00    -0.200 OA
HETATM   27  O3  VIA     1     -18.715 -21.871 -13.404  1.00  0.00    -0.200 OA
BRANCH  25  28
HETATM   28  N5  VIA     1     -19.992 -22.033 -15.599  1.00  0.00    -0.303 N 
HETATM   29  C15 VIA     1     -20.437 -20.953 -16.522  1.00  0.00     0.165 C 
HETATM   30  C16 VIA     1     -20.659 -21.525 -17.938  1.00  0.00     0.292 C 
HETATM   31  N6  VIA     1     -19.448 -22.188 -18.467  1.00  0.00     0.087 N 
HETATM   32  C17 VIA     1     -19.032 -23.261 -17.535  1.00  0.00     0.292 C 
HETATM   33  C19 VIA     1     -19.705 -22.738 -19.797  1.00  0.00     0.310 C 
HETATM   34  C18 VIA     1     -18.775 -22.725 -16.112  1.00  0.00     0.165 C 
ENDBRANCH  25  28
ENDBRANCH   5  25
TORSDOF 7
ENDMDL
