MODEL 1
REMARK VINA RESULT:      -7.8      0.000      0.000
REMARK  7 active torsions:
REMARK  status: ('A' for Active; 'I' for Inactive)
REMARK    1  A    between atoms: C2_2  and  C3_3 
REMARK    2  A    between atoms: C3_3  and  C4_4 
REMARK    3  A    between atoms: C7_10  and  C9_14 
REMARK    4  A    between atoms: C10_15  and  O4_30 
REMARK    5  A    between atoms: C13_18  and  S1_20 
REMARK    6  A    between atoms: S1_20  and  N5_23 
REMARK    7  A    between atoms: O4_30  and  C20_31 
ROOT
HETATM    1  C9  VIA     1     -42.530 -33.331 -11.845  1.00  0.00     0.045 A 
HETATM    2  C10 VIA     1     -41.161 -33.028 -12.036  1.00  0.00     0.082 A 
HETATM    3  C11 VIA     1     -40.194 -33.761 -11.331  1.00  0.00     0.039 A 
HETATM    4  C12 VIA     1     -40.563 -34.778 -10.447  1.00  0.00     0.028 A 
HETATM    5  C13 VIA     1     -41.912 -35.067 -10.256  1.00  0.00     0.080 A 
HETATM    6  C14 VIA     1     -42.890 -34.369 -10.966  1.00  0.00     0.043 A 
ENDROOT
BRANCH   1   7
HETATM    7  C7  VIA     1     -43.666 -32.599 -12.514  1.00  0.00     0.144 A 
HETATM    8  N3  VIA     1     -43.922 -31.365 -12.173  1.00  0.00    -0.226 NA
HETATM    9  C6  VIA     1     -44.991 -30.790 -12.861  1.00  0.00     0.119 A 
HETATM   10  C4  VIA     1     -45.538 -29.501 -12.758  1.00  0.00     0.086 A 
HETATM   11  C5  VIA     1     -45.713 -31.445 -13.812  1.00  0.00     0.151 A 
HETATM   12  N1  VIA     1     -46.567 -29.356 -13.615  1.00  0.00    -0.174 NA
HETATM   13  N2  VIA     1     -46.647 -30.556 -14.242  1.00  0.00    -0.266 N 
HETATM   14  C22 VIA     1     -47.655 -30.776 -15.250  1.00  0.00     0.180 C 
HETATM   15  C8  VIA     1     -45.442 -32.781 -14.192  1.00  0.00     0.278 A 
HETATM   16  N4  VIA     1     -44.389 -33.300 -13.474  1.00  0.00    -0.305 N 
HETATM   17  O1  VIA     1     -46.043 -33.421 -15.047  1.00  0.00    -0.265 OA
HETATM   18  H8  VIA     1     -44.123 -34.247 -13.707  1.00  0.00     0.170 HD
BRANCH  10  19
HETATM   19  C3  VIA     1     -45.123 -28.386 -11.862  1.00  0.00     0.063 C 
BRANCH  19  20
HETATM   20  C2  VIA     1     -46.279 -27.777 -11.064  1.00  0.00     0.002 C 
HETATM   21  C1  VIA     1     -46.575 -26.334 -11.449  1.00  0.00     0.005 C 
ENDBRANCH  19  20
ENDBRANCH  10  19
ENDBRANCH   1   7
BRANCH   2  22
HETATM   22  O4  VIA     1     -40.854 -32.011 -12.905  1.00  0.00    -0.351 OA
BRANCH  22  23
HETATM   23  C20 VIA     1     -40.111 -30.877 -12.454  1.00  0.00     0.171 C 
HETATM   24  C21 VIA     1     -40.902 -30.088 -11.425  1.00  0.00     0.034 C 
ENDBRANCH  22  23
ENDBRANCH   2  22
BRANCH   5  25
HETATM   25  S1  VIA     1     -42.394 -36.385  -9.159  1.00  0.00     0.261 S 
HETATM   26  O2  VIA     1     -43.097 -35.784  -8.045  1.00  0.00    -0.200 OA
HETATM   27  O3  VIA     1     -43.022 -37.408  -9.970  1.00  0.00    -0.200 OA
BRANCH  25  28
HETATM   28  N5  VIA     1     -40.920 -36.997  -8.596  1.00  0.00    -0.303 N 
HETATM   29  C15 VIA     1     -40.589 -36.753  -7.165  1.00  0.00     0.165 C 
HETATM   30  C16 VIA     1     -39.097 -37.050  -6.908  1.00  0.00     0.292 C 
HETATM   31  N6  VIA     1     -38.730 -38.429  -7.293  1.00  0.00     0.087 N 
HETATM   32  C17 VIA     1     -39.062 -38.644  -8.720  1.00  0.00     0.292 C 
HETATM   33  C19 VIA     1     -37.306 -38.665  -7.059  1.00  0.00     0.310 C 
HETATM   34  C18 VIA     1     -40.552 -38.380  -9.014  1.00  0.00     0.165 C 
ENDBRANCH  25  28
ENDBRANCH   5  25
TORSDOF 7
ENDMDL
