MODEL 1
REMARK VINA RESULT:      55.0      0.000      0.000
REMARK  7 active torsions:
REMARK  status: ('A' for Active; 'I' for Inactive)
REMARK    1  A    between atoms: C2_2  and  C3_3 
REMARK    2  A    between atoms: C3_3  and  C4_4 
REMARK    3  A    between atoms: C7_10  and  C9_14 
REMARK    4  A    between atoms: C10_15  and  O4_30 
REMARK    5  A    between atoms: C13_18  and  S1_20 
REMARK    6  A    between atoms: S1_20  and  N5_23 
REMARK    7  A    between atoms: O4_30  and  C20_31 
ROOT
HETATM    1  C9  VIA     1     -18.743 -29.804   3.222  1.00  0.00     0.045 A 
HETATM    2  C10 VIA     1     -17.768 -30.808   3.438  1.00  0.00     0.082 A 
HETATM    3  C11 VIA     1     -16.674 -30.529   4.271  1.00  0.00     0.039 A 
HETATM    4  C12 VIA     1     -16.534 -29.281   4.885  1.00  0.00     0.028 A 
HETATM    5  C13 VIA     1     -17.491 -28.294   4.663  1.00  0.00     0.080 A 
HETATM    6  C14 VIA     1     -18.601 -28.557   3.859  1.00  0.00     0.043 A 
ENDROOT
BRANCH   1   7
HETATM    7  C7  VIA     1     -19.945 -29.963   2.327  1.00  0.00     0.144 A 
HETATM    8  N3  VIA     1     -20.479 -28.904   1.778  1.00  0.00    -0.226 NA
HETATM    9  C6  VIA     1     -21.582 -29.174   0.968  1.00  0.00     0.119 A 
HETATM   10  C4  VIA     1     -22.391 -28.295   0.229  1.00  0.00     0.086 A 
HETATM   11  C5  VIA     1     -22.069 -30.427   0.751  1.00  0.00     0.151 A 
HETATM   12  N1  VIA     1     -23.352 -28.977  -0.426  1.00  0.00    -0.174 NA
HETATM   13  N2  VIA     1     -23.128 -30.271  -0.087  1.00  0.00    -0.266 N 
HETATM   14  C22 VIA     1     -23.979 -31.311  -0.613  1.00  0.00     0.180 C 
HETATM   15  C8  VIA     1     -21.496 -31.581   1.337  1.00  0.00     0.278 A 
HETATM   16  N4  VIA     1     -20.423 -31.255   2.135  1.00  0.00    -0.305 N 
HETATM   17  O1  VIA     1     -21.877 -32.734   1.173  1.00  0.00    -0.265 OA
HETATM   18  H8  VIA     1     -19.947 -32.034   2.571  1.00  0.00     0.170 HD
BRANCH  10  19
HETATM   19  C3  VIA     1     -22.294 -26.813   0.121  1.00  0.00     0.063 C 
BRANCH  19  20
HETATM   20  C2  VIA     1     -23.090 -26.066   1.194  1.00  0.00     0.002 C 
HETATM   21  C1  VIA     1     -22.417 -24.779   1.650  1.00  0.00     0.005 C 
ENDBRANCH  19  20
ENDBRANCH  10  19
ENDBRANCH   1   7
BRANCH   2  22
HETATM   22  O4  VIA     1     -17.948 -32.009   2.802  1.00  0.00    -0.351 OA
BRANCH  22  23
HETATM   23  C20 VIA     1     -17.437 -33.213   3.378  1.00  0.00     0.171 C 
HETATM   24  C21 VIA     1     -17.615 -33.208   4.885  1.00  0.00     0.034 C 
ENDBRANCH  22  23
ENDBRANCH   2  22
BRANCH   5  25
HETATM   25  S1  VIA     1     -17.342 -26.712   5.467  1.00  0.00     0.261 S 
HETATM   26  O2  VIA     1     -17.891 -25.718   4.569  1.00  0.00    -0.200 OA
HETATM   27  O3  VIA     1     -17.859 -26.866   6.811  1.00  0.00    -0.200 OA
BRANCH  25  28
HETATM   28  N5  VIA     1     -15.671 -26.473   5.574  1.00  0.00    -0.303 N 
HETATM   29  C15 VIA     1     -14.996 -25.873   4.391  1.00  0.00     0.165 C 
HETATM   30  C16 VIA     1     -13.467 -26.049   4.506  1.00  0.00     0.292 C 
HETATM   31  N6  VIA     1     -12.932 -25.465   5.755  1.00  0.00     0.087 N 
HETATM   32  C17 VIA     1     -13.613 -26.083   6.915  1.00  0.00     0.292 C 
HETATM   33  C19 VIA     1     -11.487 -25.673   5.840  1.00  0.00     0.310 C 
HETATM   34  C18 VIA     1     -15.144 -25.908   6.850  1.00  0.00     0.165 C 
ENDBRANCH  25  28
ENDBRANCH   5  25
TORSDOF 7
ENDMDL
