MODEL 1
REMARK VINA RESULT:      -9.3      0.000      0.000
REMARK  7 active torsions:
REMARK  status: ('A' for Active; 'I' for Inactive)
REMARK    1  A    between atoms: C2_2  and  C3_3 
REMARK    2  A    between atoms: C3_3  and  C4_4 
REMARK    3  A    between atoms: C7_10  and  C9_14 
REMARK    4  A    between atoms: C10_15  and  O4_30 
REMARK    5  A    between atoms: C13_18  and  S1_20 
REMARK    6  A    between atoms: S1_20  and  N5_23 
REMARK    7  A    between atoms: O4_30  and  C20_31 
ROOT
HETATM    1  C9  VIA     1     -23.223 -23.693 -12.767  1.00  0.00     0.045 A 
HETATM    2  C10 VIA     1     -22.552 -24.816 -12.228  1.00  0.00     0.082 A 
HETATM    3  C11 VIA     1     -21.152 -24.875 -12.300  1.00  0.00     0.039 A 
HETATM    4  C12 VIA     1     -20.417 -23.847 -12.896  1.00  0.00     0.028 A 
HETATM    5  C13 VIA     1     -21.082 -22.748 -13.433  1.00  0.00     0.080 A 
HETATM    6  C14 VIA     1     -22.472 -22.656 -13.350  1.00  0.00     0.043 A 
ENDROOT
BRANCH   1   7
HETATM    7  C7  VIA     1     -24.721 -23.522 -12.784  1.00  0.00     0.144 A 
HETATM    8  N3  VIA     1     -25.486 -24.544 -12.505  1.00  0.00    -0.226 NA
HETATM    9  C6  VIA     1     -26.852 -24.265 -12.548  1.00  0.00     0.119 A 
HETATM   10  C4  VIA     1     -27.949 -25.107 -12.305  1.00  0.00     0.086 A 
HETATM   11  C5  VIA     1     -27.362 -23.039 -12.848  1.00  0.00     0.151 A 
HETATM   12  N1  VIA     1     -29.105 -24.429 -12.449  1.00  0.00    -0.174 NA
HETATM   13  N2  VIA     1     -28.712 -23.174 -12.780  1.00  0.00    -0.266 N 
HETATM   14  C22 VIA     1     -29.700 -22.149 -13.016  1.00  0.00     0.180 C 
HETATM   15  C8  VIA     1     -26.542 -21.924 -13.149  1.00  0.00     0.278 A 
HETATM   16  N4  VIA     1     -25.208 -22.259 -13.105  1.00  0.00    -0.305 N 
HETATM   17  O1  VIA     1     -26.935 -20.794 -13.414  1.00  0.00    -0.265 OA
HETATM   18  H8  VIA     1     -24.560 -21.505 -13.288  1.00  0.00     0.170 HD
BRANCH  10  19
HETATM   19  C3  VIA     1     -27.948 -26.552 -11.942  1.00  0.00     0.063 C 
BRANCH  19  20
HETATM   20  C2  VIA     1     -27.415 -27.463 -13.050  1.00  0.00     0.002 C 
HETATM   21  C1  VIA     1     -27.255 -28.910 -12.608  1.00  0.00     0.005 C 
ENDBRANCH  19  20
ENDBRANCH  10  19
ENDBRANCH   1   7
BRANCH   2  22
HETATM   22  O4  VIA     1     -23.323 -25.803 -11.667  1.00  0.00    -0.351 OA
BRANCH  22  23
HETATM   23  C20 VIA     1     -22.974 -27.177 -11.842  1.00  0.00     0.171 C 
HETATM   24  C21 VIA     1     -23.718 -27.777 -13.022  1.00  0.00     0.034 C 
ENDBRANCH  22  23
ENDBRANCH   2  22
BRANCH   5  25
HETATM   25  S1  VIA     1     -20.154 -21.415 -14.163  1.00  0.00     0.261 S 
HETATM   26  O2  VIA     1     -20.969 -20.222 -14.074  1.00  0.00    -0.200 OA
HETATM   27  O3  VIA     1     -18.826 -21.453 -13.586  1.00  0.00    -0.200 OA
BRANCH  25  28
HETATM   28  N5  VIA     1     -20.029 -21.858 -15.791  1.00  0.00    -0.303 N 
HETATM   29  C15 VIA     1     -20.230 -20.784 -16.802  1.00  0.00     0.165 C 
HETATM   30  C16 VIA     1     -20.435 -21.403 -18.200  1.00  0.00     0.292 C 
HETATM   31  N6  VIA     1     -19.308 -22.275 -18.594  1.00  0.00     0.087 N 
HETATM   32  C17 VIA     1     -19.134 -23.338 -17.578  1.00  0.00     0.292 C 
HETATM   33  C19 VIA     1     -19.550 -22.863 -19.911  1.00  0.00     0.310 C 
HETATM   34  C18 VIA     1     -18.902 -22.759 -16.168  1.00  0.00     0.165 C 
ENDBRANCH  25  28
ENDBRANCH   5  25
TORSDOF 7
ENDMDL
