MODEL 1
REMARK VINA RESULT:      12.4      0.000      0.000
REMARK  7 active torsions:
REMARK  status: ('A' for Active; 'I' for Inactive)
REMARK    1  A    between atoms: C2_2  and  C3_3 
REMARK    2  A    between atoms: C3_3  and  C4_4 
REMARK    3  A    between atoms: C7_10  and  C9_14 
REMARK    4  A    between atoms: C10_15  and  O4_30 
REMARK    5  A    between atoms: C13_18  and  S1_20 
REMARK    6  A    between atoms: S1_20  and  N5_23 
REMARK    7  A    between atoms: O4_30  and  C20_31 
ROOT
HETATM    1  C9  VIA     1     -16.174 -44.379 -17.280  1.00  0.00     0.045 A 
HETATM    2  C10 VIA     1     -15.301 -43.265 -17.283  1.00  0.00     0.082 A 
HETATM    3  C11 VIA     1     -14.275 -43.204 -18.238  1.00  0.00     0.039 A 
HETATM    4  C12 VIA     1     -14.103 -44.224 -19.177  1.00  0.00     0.028 A 
HETATM    5  C13 VIA     1     -14.958 -45.322 -19.166  1.00  0.00     0.080 A 
HETATM    6  C14 VIA     1     -16.002 -45.392 -18.242  1.00  0.00     0.043 A 
ENDROOT
BRANCH   1   7
HETATM    7  C7  VIA     1     -17.293 -44.583 -16.290  1.00  0.00     0.144 A 
HETATM    8  N3  VIA     1     -18.117 -43.600 -16.044  1.00  0.00    -0.226 NA
HETATM    9  C6  VIA     1     -19.113 -43.906 -15.116  1.00  0.00     0.119 A 
HETATM   10  C4  VIA     1     -20.155 -43.108 -14.619  1.00  0.00     0.086 A 
HETATM   11  C5  VIA     1     -19.233 -45.122 -14.515  1.00  0.00     0.151 A 
HETATM   12  N1  VIA     1     -20.901 -43.801 -13.737  1.00  0.00    -0.174 NA
HETATM   13  N2  VIA     1     -20.314 -45.023 -13.696  1.00  0.00    -0.266 N 
HETATM   14  C22 VIA     1     -20.852 -46.053 -12.841  1.00  0.00     0.180 C 
HETATM   15  C8  VIA     1     -18.349 -46.196 -14.778  1.00  0.00     0.278 A 
HETATM   16  N4  VIA     1     -17.381 -45.833 -15.688  1.00  0.00    -0.305 N 
HETATM   17  O1  VIA     1     -18.410 -47.315 -14.282  1.00  0.00    -0.265 OA
HETATM   18  H8  VIA     1     -16.725 -46.559 -15.942  1.00  0.00     0.170 HD
BRANCH  10  19
HETATM   19  C3  VIA     1     -20.475 -41.690 -14.946  1.00  0.00     0.063 C 
BRANCH  19  20
HETATM   20  C2  VIA     1     -21.884 -41.266 -14.527  1.00  0.00     0.002 C 
HETATM   21  C1  VIA     1     -21.904 -40.441 -13.247  1.00  0.00     0.005 C 
ENDBRANCH  19  20
ENDBRANCH  10  19
ENDBRANCH   1   7
BRANCH   2  22
HETATM   22  O4  VIA     1     -15.507 -42.300 -16.330  1.00  0.00    -0.351 OA
BRANCH  22  23
HETATM   23  C20 VIA     1     -14.576 -42.136 -15.259  1.00  0.00     0.171 C 
HETATM   24  C21 VIA     1     -14.837 -40.839 -14.512  1.00  0.00     0.034 C 
ENDBRANCH  22  23
ENDBRANCH   2  22
BRANCH   5  25
HETATM   25  S1  VIA     1     -14.771 -46.611 -20.381  1.00  0.00     0.261 S 
HETATM   26  O2  VIA     1     -14.147 -46.019 -21.545  1.00  0.00    -0.200 OA
HETATM   27  O3  VIA     1     -14.169 -47.746 -19.710  1.00  0.00    -0.200 OA
BRANCH  25  28
HETATM   28  N5  VIA     1     -16.363 -47.023 -20.777  1.00  0.00    -0.303 N 
HETATM   29  C15 VIA     1     -17.412 -46.716 -19.767  1.00  0.00     0.165 C 
HETATM   30  C16 VIA     1     -18.719 -47.458 -20.116  1.00  0.00     0.292 C 
HETATM   31  N6  VIA     1     -19.200 -47.129 -21.475  1.00  0.00     0.087 N 
HETATM   32  C17 VIA     1     -18.142 -47.451 -22.460  1.00  0.00     0.292 C 
HETATM   33  C19 VIA     1     -20.424 -47.870 -21.780  1.00  0.00     0.310 C 
HETATM   34  C18 VIA     1     -16.825 -46.708 -22.159  1.00  0.00     0.165 C 
ENDBRANCH  25  28
ENDBRANCH   5  25
TORSDOF 7
ENDMDL
