MODEL 1
REMARK VINA RESULT:      -9.4      0.000      0.000
REMARK  7 active torsions:
REMARK  status: ('A' for Active; 'I' for Inactive)
REMARK    1  A    between atoms: C2_2  and  C3_3 
REMARK    2  A    between atoms: C3_3  and  C4_4 
REMARK    3  A    between atoms: C7_10  and  C9_14 
REMARK    4  A    between atoms: C10_15  and  O4_30 
REMARK    5  A    between atoms: C13_18  and  S1_20 
REMARK    6  A    between atoms: S1_20  and  N5_23 
REMARK    7  A    between atoms: O4_30  and  C20_31 
ROOT
HETATM    1  C9  VIA     1     -27.959 -21.480 -13.382  1.00  0.00     0.045 A 
HETATM    2  C10 VIA     1     -29.045 -22.381 -13.284  1.00  0.00     0.082 A 
HETATM    3  C11 VIA     1     -30.353 -21.874 -13.256  1.00  0.00     0.039 A 
HETATM    4  C12 VIA     1     -30.595 -20.499 -13.320  1.00  0.00     0.028 A 
HETATM    5  C13 VIA     1     -29.523 -19.615 -13.408  1.00  0.00     0.080 A 
HETATM    6  C14 VIA     1     -28.214 -20.099 -13.464  1.00  0.00     0.043 A 
ENDROOT
BRANCH   1   7
HETATM    7  C7  VIA     1     -26.508 -21.891 -13.388  1.00  0.00     0.144 A 
HETATM    8  N3  VIA     1     -26.143 -22.961 -12.734  1.00  0.00    -0.226 NA
HETATM    9  C6  VIA     1     -24.779 -23.244 -12.815  1.00  0.00     0.119 A 
HETATM   10  C4  VIA     1     -24.044 -24.298 -12.249  1.00  0.00     0.086 A 
HETATM   11  C5  VIA     1     -23.893 -22.484 -13.515  1.00  0.00     0.151 A 
HETATM   12  N1  VIA     1     -22.743 -24.199 -12.584  1.00  0.00    -0.174 NA
HETATM   13  N2  VIA     1     -22.684 -23.085 -13.355  1.00  0.00    -0.266 N 
HETATM   14  C22 VIA     1     -21.422 -22.657 -13.907  1.00  0.00     0.180 C 
HETATM   15  C8  VIA     1     -24.278 -21.324 -14.230  1.00  0.00     0.278 A 
HETATM   16  N4  VIA     1     -25.628 -21.087 -14.105  1.00  0.00    -0.305 N 
HETATM   17  O1  VIA     1     -23.535 -20.606 -14.889  1.00  0.00    -0.265 OA
HETATM   18  H8  VIA     1     -25.981 -20.284 -14.609  1.00  0.00     0.170 HD
BRANCH  10  19
HETATM   19  C3  VIA     1     -24.531 -25.410 -11.385  1.00  0.00     0.063 C 
BRANCH  19  20
HETATM   20  C2  VIA     1     -24.860 -26.689 -12.158  1.00  0.00     0.002 C 
HETATM   21  C1  VIA     1     -26.350 -27.001 -12.191  1.00  0.00     0.005 C 
ENDBRANCH  19  20
ENDBRANCH  10  19
ENDBRANCH   1   7
BRANCH   2  22
HETATM   22  O4  VIA     1     -28.751 -23.719 -13.210  1.00  0.00    -0.351 OA
BRANCH  22  23
HETATM   23  C20 VIA     1     -29.259 -24.511 -12.134  1.00  0.00     0.171 C 
HETATM   24  C21 VIA     1     -28.506 -24.220 -10.848  1.00  0.00     0.034 C 
ENDBRANCH  22  23
ENDBRANCH   2  22
BRANCH   5  25
HETATM   25  S1  VIA     1     -29.819 -17.864 -13.527  1.00  0.00     0.261 S 
HETATM   26  O2  VIA     1     -30.451 -17.448 -12.293  1.00  0.00    -0.200 OA
HETATM   27  O3  VIA     1     -28.585 -17.251 -13.974  1.00  0.00    -0.200 OA
BRANCH  25  28
HETATM   28  N5  VIA     1     -30.950 -17.732 -14.779  1.00  0.00    -0.303 N 
HETATM   29  C15 VIA     1     -31.107 -16.393 -15.410  1.00  0.00     0.165 C 
HETATM   30  C16 VIA     1     -32.393 -16.355 -16.262  1.00  0.00     0.292 C 
HETATM   31  N6  VIA     1     -32.410 -17.416 -17.292  1.00  0.00     0.087 N 
HETATM   32  C17 VIA     1     -32.260 -18.736 -16.638  1.00  0.00     0.292 C 
HETATM   33  C19 VIA     1     -33.653 -17.365 -18.061  1.00  0.00     0.310 C 
HETATM   34  C18 VIA     1     -30.972 -18.823 -15.795  1.00  0.00     0.165 C 
ENDBRANCH  25  28
ENDBRANCH   5  25
TORSDOF 7
ENDMDL
