@<TRIPOS>MOLECULE
phz.pdb
   16    16     1     0     0
SMALL
bcc


@<TRIPOS>ATOM
      1 H1          48.0330    49.9100    50.8560 ha         1 PHZ       0.134000
      2 H2          45.5860    49.8790    50.4290 ha         1 PHZ       0.132500
      3 H3          44.7220    50.1210    48.1180 ha         1 PHZ       0.131000
      4 H4          48.7500    50.4510    46.6520 ha         1 PHZ       0.131000
      5 H5          49.6130    50.2070    48.9640 ha         1 PHZ       0.132500
      6 C1          47.6540    50.0180    49.8400 ca         1 PHZ      -0.157000
      7 C2          46.2830    49.9950    49.5990 ca         1 PHZ      -0.100000
      8 C3          45.7980    50.1210    48.2930 ca         1 PHZ      -0.171000
      9 C4          46.6740    50.2470    47.2070 ca         1 PHZ       0.079600
     10 C5          48.0500    50.3050    47.4750 ca         1 PHZ      -0.171000
     11 C6          48.5390    50.1790    48.7790 ca         1 PHZ      -0.100000
     12 N1          46.2330    50.4390    45.8740 nu         1 PHZ      -0.486400
     13 H6          46.7540    49.8580    45.2140 hn         1 PHZ       0.400800
     14 N2          44.8630    50.5680    45.6000 n8         1 PHZ      -0.642600
     15 H7          44.4360    51.2260    46.2540 hn         1 PHZ       0.344300
     16 H8          44.3840    49.6740    45.7260 hn         1 PHZ       0.344300
@<TRIPOS>BOND
     1     1     6 1   
     2     2     7 1   
     3     3     8 1   
     4     4    10 1   
     5     5    11 1   
     6     6     7 ar  
     7     6    11 ar  
     8     7     8 ar  
     9     8     9 ar  
    10     9    10 ar  
    11     9    12 1   
    12    10    11 ar  
    13    12    13 1   
    14    12    14 1   
    15    14    15 1   
    16    14    16 1   
@<TRIPOS>SUBSTRUCTURE
     1 PHZ         1 TEMP              0 ****  ****    0 ROOT
