@<TRIPOS>MOLECULE
pea.pdb
 37 36 0 0 0
SMALL
GASTEIGER

@<TRIPOS>ATOM
      1  O          1.3540   -1.7540    0.8710 O.3     1  EA1        -0.2828
      2  P          2.1770   -0.6800   -0.0210 P.3     1  EA1         0.4751
      3  O          1.4830   -0.2530   -1.2820 O.2     1  EA1        -0.2273
      4  O          2.5300    0.5250    1.0000 O.3     1  EA1        -0.2854
      5  C          1.9240    0.5700    2.2810 C.3     1  EA1         0.0713
      6  C          1.1340    1.8630    2.4020 C.3     1  EA1         0.0172
      7  N         -0.0830    1.7980    1.6070 N.3     1  EA1        -0.3279
      8  H         -0.7720    1.2150    2.0800 H       1  EA1         0.1183
      9  H         -0.4930    2.7280    1.5390 H       1  EA1         0.1183
     10  O          3.5960   -1.4220   -0.2670 O.3     1  EA1        -0.3025
     11  H          4.3720   -1.1430    0.2620 H       1  EA1         0.2220
     12  C          0.2500   -2.4180    0.2780 C.3     1  EA1         0.0993
     13  C          0.5890   -3.8860    0.0500 C.3     1  EA1         0.1605
     14  O          1.7290   -4.2220    0.8440 O.3     1  EA1        -0.4557
     15  C          1.5280   -5.1970    1.7770 C.2     1  EA1         0.3044
     16  O          0.6460   -6.0450    1.7590 O.2     1  EA1        -0.2512
     17  C          2.5650   -5.0850    2.8530 C.3     1  EA1         0.0332
     18  C          0.9350   -4.1580   -1.4080 C.3     1  EA1         0.1315
     19  O          2.3200   -3.8990   -1.6110 O.3     1  EA1        -0.4610
     20  C          2.6650   -3.4500   -2.8560 C.2     1  EA1         0.3041
     21  O          3.3770   -2.4880   -3.1030 O.2     1  EA1        -0.2512
     22  C          2.0350   -4.3210   -3.9010 C.3     1  EA1         0.0332
     23  H          2.6800    0.5380    3.0380 H       1  EA1         0.0578
     24  H          1.2710   -0.2690    2.4050 H       1  EA1         0.0578
     25  H          1.7370    2.6770    2.0560 H       1  EA1         0.0444
     26  H          0.8680    2.0090    3.4280 H       1  EA1         0.0444
     27  H          0.0210   -1.9570   -0.6600 H       1  EA1         0.0604
     28  H         -0.5950   -2.3490    0.9310 H       1  EA1         0.0604
     29  H         -0.2650   -4.4710    0.3190 H       1  EA1         0.0792
     30  H          3.2170   -4.2650    2.6360 H       1  EA1         0.0342
     31  H          3.1330   -5.9910    2.8960 H       1  EA1         0.0342
     32  H          2.0850   -4.9200    3.7950 H       1  EA1         0.0342
     33  H          0.3540   -3.5190   -2.0400 H       1  EA1         0.0736
     34  H          0.7190   -5.1780   -1.6470 H       1  EA1         0.0736
     35  H          1.4620   -5.0900   -3.4260 H       1  EA1         0.0342
     36  H          2.8000   -4.7660   -4.5030 H       1  EA1         0.0342
     37  H          1.3930   -3.7290   -4.5190 H       1  EA1         0.0342
@<TRIPOS>BOND
     1     1     2    1
     2     1    12    1
     3     2     3    2
     4     2     4    1
     5     2    10    1
     6     4     5    1
     7     5     6    1
     8     5    23    1
     9     5    24    1
    10     6     7    1
    11     6    25    1
    12     6    26    1
    13     7     8    1
    14     7     9    1
    15    10    11    1
    16    12    13    1
    17    12    27    1
    18    12    28    1
    19    13    14    1
    20    13    18    1
    21    13    29    1
    22    14    15    1
    23    15    16    2
    24    15    17    1
    25    17    30    1
    26    17    31    1
    27    17    32    1
    28    18    19    1
    29    18    33    1
    30    18    34    1
    31    19    20    1
    32    20    21    2
    33    20    22    1
    34    22    35    1
    35    22    36    1
    36    22    37    1
