@<TRIPOS>MOLECULE
pea.pdb
   37    36     1     0     0
SMALL
bcc


@<TRIPOS>ATOM
      1 O            1.3540    -1.7540     0.8710 os         1 EA1      -0.579200
      2 P            2.1770    -0.6800    -0.0210 p5         1 EA1       1.635500
      3 O1           1.4830    -0.2530    -1.2820 o          1 EA1      -0.809300
      4 O2           2.5300     0.5250     1.0000 os         1 EA1      -0.555200
      5 C            1.9240     0.5700     2.2810 c3         1 EA1       0.154400
      6 C1           1.1340     1.8630     2.4020 c3         1 EA1       0.159800
      7 N           -0.0830     1.7980     1.6070 n8         1 EA1      -0.912800
      8 H           -0.7720     1.2150     2.0800 hn         1 EA1       0.354300
      9 H1          -0.4930     2.7280     1.5390 hn         1 EA1       0.354300
     10 O3           3.5960    -1.4220    -0.2670 oh         1 EA1      -0.779400
     11 H2           4.3720    -1.1430     0.2620 ho         1 EA1       0.513000
     12 C2           0.2500    -2.4180     0.2780 c3         1 EA1       0.184400
     13 C3           0.5890    -3.8860     0.0500 c3         1 EA1       0.126100
     14 O4           1.7290    -4.2220     0.8440 os         1 EA1      -0.399900
     15 C4           1.5280    -5.1970     1.7770 c          1 EA1       0.635100
     16 O5           0.6460    -6.0450     1.7590 o          1 EA1      -0.561000
     17 C5           2.5650    -5.0850     2.8530 c3         1 EA1      -0.149100
     18 C6           0.9350    -4.1580    -1.4080 c3         1 EA1       0.104400
     19 O6           2.3200    -3.8990    -1.6110 os         1 EA1      -0.446900
     20 C7           2.6650    -3.4500    -2.8560 c          1 EA1       0.635100
     21 O7           3.3770    -2.4880    -3.1030 o          1 EA1      -0.498000
     22 C8           2.0350    -4.3210    -3.9010 c3         1 EA1      -0.188100
     23 H3           2.6800     0.5380     3.0380 h1         1 EA1       0.062200
     24 H4           1.2710    -0.2690     2.4050 h1         1 EA1       0.062200
     25 H5           1.7370     2.6770     2.0560 h1         1 EA1       0.037700
     26 H6           0.8680     2.0090     3.4280 h1         1 EA1       0.037700
     27 H7           0.0210    -1.9570    -0.6600 h1         1 EA1       0.068200
     28 H8          -0.5950    -2.3490     0.9310 h1         1 EA1       0.068200
     29 H9          -0.2650    -4.4710     0.3190 h1         1 EA1       0.079700
     30 H10          3.2170    -4.2650     2.6360 hc         1 EA1       0.080033
     31 H11          3.1330    -5.9910     2.8960 hc         1 EA1       0.080033
     32 H12          2.0850    -4.9200     3.7950 hc         1 EA1       0.080033
     33 H13          0.3540    -3.5190    -2.0400 h1         1 EA1       0.062200
     34 H14          0.7190    -5.1780    -1.6470 h1         1 EA1       0.062200
     35 H15          1.4620    -5.0900    -3.4260 hc         1 EA1       0.080367
     36 H16          2.8000    -4.7660    -4.5030 hc         1 EA1       0.080367
     37 H17          1.3930    -3.7290    -4.5190 hc         1 EA1       0.080367
@<TRIPOS>BOND
     1     1     2 1   
     2     1    12 1   
     3     2     3 2   
     4     2     4 1   
     5     2    10 1   
     6     4     5 1   
     7     5     6 1   
     8     5    23 1   
     9     5    24 1   
    10     6     7 1   
    11     6    25 1   
    12     6    26 1   
    13     7     8 1   
    14     7     9 1   
    15    10    11 1   
    16    12    13 1   
    17    12    27 1   
    18    12    28 1   
    19    13    14 1   
    20    13    18 1   
    21    13    29 1   
    22    14    15 1   
    23    15    16 2   
    24    15    17 1   
    25    17    30 1   
    26    17    31 1   
    27    17    32 1   
    28    18    19 1   
    29    18    33 1   
    30    18    34 1   
    31    19    20 1   
    32    20    21 2   
    33    20    22 1   
    34    22    35 1   
    35    22    36 1   
    36    22    37 1   
@<TRIPOS>SUBSTRUCTURE
     1 EA1         1 TEMP              0 ****  ****    0 ROOT
