@<TRIPOS>MOLECULE
*****
 29 30 0 0 0
SMALL
GASTEIGER

@<TRIPOS>ATOM
      1  O        -25.7074    5.2793   43.8051 O.2     0  NDX0       -0.2862
      2  N        -24.8589    2.0483   46.0885 N.ar    0  NDX0       -0.3312
      3  N        -24.1057    3.4194   47.6899 N.ar    0  NDX0       -0.2341
      4  C        -24.5479    3.2805   46.6728 C.ar    0  NDX0        0.1446
      5  C        -24.8787    4.4065   45.8089 C.ar    0  NDX0        0.0650
      6  C        -25.4574    1.8210   44.8514 C.ar    0  NDX0        0.0242
      7  C        -25.7456    2.9066   44.0460 C.ar    0  NDX0        0.1221
      8  C        -25.4672    4.2916   44.4750 C.ar    0  NDX0        0.2049
      9  C        -24.5795    5.7075   46.3902 C.ar    0  NDX0       -0.0457
     10  C        -23.8090    4.5747   48.3181 C.ar    0  NDX0        0.0406
     11  C        -24.0420    5.7810   47.6710 C.ar    0  NDX0       -0.0398
     12  C        -23.2318    4.4949   49.7189 C.3     0  NDX0       -0.0223
     13  C        -26.3544    2.5876   42.7266 C.2     0  NDX0        0.3420
     14  O        -26.5967    1.4593   42.3443 O.2     0  NDX0       -0.2449
     15  O        -26.6351    3.5949   41.9414 O.3     0  NDX0       -0.4770
     16  H        -26.3709    4.4124   42.4142 H       0  NDX0        0.2954
     17  C        -24.5513    0.8025   46.8291 C.3     0  NDX0        0.0218
     18  C        -23.3997   -0.0105   46.2057 C.3     0  NDX0       -0.0470
     19  H        -25.6489    0.7874   44.5847 H       0  NDX0        0.0819
     20  H        -24.7783    6.6257   45.8432 H       0  NDX0        0.0626
     21  H        -23.8167    6.7371   48.1376 H       0  NDX0        0.0636
     22  H        -23.1442    5.4887   50.1638 H       0  NDX0        0.0292
     23  H        -22.2389    4.0405   49.6964 H       0  NDX0        0.0292
     24  H        -23.8742    3.8895   50.3627 H       0  NDX0        0.0292
     25  H        -24.2904    1.0140   47.8692 H       0  NDX0        0.0489
     26  H        -25.4494    0.1786   46.8523 H       0  NDX0        0.0489
     27  H        -22.4968    0.5988   46.1261 H       0  NDX0        0.0247
     28  H        -23.6672   -0.3671   45.2084 H       0  NDX0        0.0247
     29  H        -23.1750   -0.8805   46.8264 H       0  NDX0        0.0247
@<TRIPOS>BOND
     1     1     8    2
     2     2     6   ar
     3     2     4   ar
     4     2    17    1
     5     3     4   ar
     6     3    10   ar
     7     4     5   ar
     8     5     8   ar
     9     5     9   ar
    10     6     7   ar
    11     6    19    1
    12     7    13    1
    13     7     8   ar
    14     9    11   ar
    15     9    20    1
    16    10    11   ar
    17    10    12    1
    18    11    21    1
    19    12    22    1
    20    12    23    1
    21    12    24    1
    22    13    15    1
    23    13    14    2
    24    15    16    1
    25    17    18    1
    26    17    25    1
    27    17    26    1
    28    18    27    1
    29    18    28    1
    30    18    29    1
