@<TRIPOS>MOLECULE
*****
 88 91 0 0 0
SMALL
GASTEIGER

@<TRIPOS>ATOM
      1  C1       -35.2791   -7.5197   38.4217 C.3     1  NEO1       -0.0175
      2  N1       -36.9084   -8.9626   39.5344 N.3     1  NEO1       -0.3250
      3  O1       -38.6471   -6.5262   40.0151 O.3     1  NEO1       -0.3422
      4  C2       -34.7460   -6.0834   38.2298 C.3     1  NEO1        0.0351
      5  N2       -39.9052   -9.8909   43.7246 N.3     1  NEO1       -0.3276
      6  O2       -39.2819   -8.4145   41.3313 O.3     1  NEO1       -0.3425
      7  C3       -35.8911   -5.1532   37.7746 C.3     1  NEO1        0.0990
      8  N3       -41.3621   -6.4119   38.9759 N.3     1  NEO1       -0.3211
      9  O3       -40.9529   -6.3246   43.8997 O.3     1  NEO1       -0.3866
     10  C4       -37.0179   -5.1721   38.8305 C.3     1  NEO1        0.1166
     11  N4       -43.5089   -3.4383   43.9314 N.3     1  NEO1       -0.3276
     12  O4       -42.6291   -5.9155   41.5406 O.3     1  NEO1       -0.3874
     13  C5       -37.5957   -6.6010   39.0037 C.3     1  NEO1        0.1055
     14  N5       -39.2554    0.3501   43.0540 N.3     1  NEO1       -0.3211
     15  O5       -38.0711   -4.2739   38.3828 O.3     1  NEO1       -0.3402
     16  C6       -36.4500   -7.5659   39.4337 C.3     1  NEO1        0.0355
     17  N6       -33.6564   -6.0779   37.2374 N.3     1  NEO1       -0.3250
     18  O6       -37.6885   -2.9821   40.4308 O.3     1  NEO1       -0.3405
     19  C7       -39.5601   -7.6544   40.1297 C.3     1  NEO1        0.1776
     20  O7       -39.3488   -3.7477   43.6442 O.3     1  NEO1       -0.3924
     21  C8       -41.0252   -7.1656   40.1974 C.3     1  NEO1        0.0853
     22  O8       -40.3249   -1.2035   40.8851 O.3     1  NEO1       -0.3410
     23  C9       -41.2538   -6.3192   41.4722 C.3     1  NEO1        0.1033
     24  O9       -41.5286   -1.5950   42.9576 O.3     1  NEO1       -0.3425
     25  C10      -40.8695   -7.1435   42.7256 C.3     1  NEO1        0.1100
     26  O10      -40.9653   -0.3774   45.4329 O.3     1  NEO1       -0.3866
     27  C11      -39.4281   -7.7072   42.5927 C.3     1  NEO1        0.1022
     28  O11      -42.6501    1.7711   42.9783 O.3     1  NEO1       -0.3874
     29  C12      -39.0624   -8.6804   43.7364 C.3     1  NEO1        0.0222
     30  O12      -40.7796   -2.6769   38.6351 O.3     1  NEO1       -0.3841
     31  C13      -38.4186   -3.1067   39.1810 C.3     1  NEO1        0.1884
     32  O13      -35.3932   -3.8197   37.5996 O.3     1  NEO1       -0.3876
     33  C14      -39.8836   -3.2538   39.5891 C.3     1  NEO1        0.1345
     34  C15      -39.9835   -2.6144   40.9704 C.3     1  NEO1        0.1205
     35  C16      -38.5641   -2.7230   41.5565 C.3     1  NEO1        0.1135
     36  C17      -38.4087   -3.8715   42.5698 C.3     1  NEO1        0.0730
     37  C18      -41.2177   -0.6610   41.8933 C.3     1  NEO1        0.1776
     38  C19      -40.6007    0.6162   42.5189 C.3     1  NEO1        0.0853
     39  C20      -41.5320    1.1727   43.6299 C.3     1  NEO1        0.1033
     40  C21      -42.0402    0.0765   44.6106 C.3     1  NEO1        0.1100
     41  C22      -42.5892   -1.1401   43.8296 C.3     1  NEO1        0.1022
     42  C23      -43.0108   -2.3134   44.7417 C.3     1  NEO1        0.0222
     43  H01      -34.4675   -8.1615   38.7747 H       1  NEO1        0.0297
     44  H02      -35.6124   -7.9168   37.4585 H       1  NEO1        0.0297
     45  H03      -36.1456   -9.5587   39.8493 H       1  NEO1        0.1185
     46  H04      -37.6459   -9.0301   40.2360 H       1  NEO1        0.1185
     47  H05      -34.3491   -5.7221   39.1831 H       1  NEO1        0.0485
     48  H06      -39.6452  -10.5042   44.4942 H       1  NEO1        0.1183
     49  H07      -40.8811   -9.6348   43.8601 H       1  NEO1        0.1183
     50  H08      -36.2882   -5.5066   36.8182 H       1  NEO1        0.0636
     51  H09      -40.6876   -5.6604   38.8499 H       1  NEO1        0.1187
     52  H10      -41.2753   -7.0198   38.1643 H       1  NEO1        0.1187
     53  H11      -40.2810   -5.6130   43.8520 H       1  NEO1        0.2100
     54  H12      -36.5972   -4.8609   39.7878 H       1  NEO1        0.0650
     55  H13      -43.7617   -4.2233   44.5287 H       1  NEO1        0.1183
     56  H14      -44.3413   -3.1654   43.4138 H       1  NEO1        0.1183
     57  H15      -42.8660   -5.4450   40.7170 H       1  NEO1        0.2100
     58  H16      -38.0332   -6.9283   38.0556 H       1  NEO1        0.0639
     59  H17      -39.3160   -0.3498   43.7904 H       1  NEO1        0.1187
     60  H18      -38.6713   -0.0349   42.3149 H       1  NEO1        0.1187
     61  H19      -36.0802   -7.2522   40.4142 H       1  NEO1        0.0485
     62  H20      -34.0063   -6.3939   36.3354 H       1  NEO1        0.1185
     63  H21      -33.3272   -5.1226   37.1057 H       1  NEO1        0.1185
     64  H22      -39.4228   -8.3202   39.2633 H       1  NEO1        0.0927
     65  H23      -39.7570   -2.8560   43.6290 H       1  NEO1        0.2095
     66  H24      -41.6773   -8.0426   40.2469 H       1  NEO1        0.0535
     67  H25      -40.6250   -5.4308   41.4360 H       1  NEO1        0.0637
     68  H26      -41.5744   -7.9737   42.8234 H       1  NEO1        0.0646
     69  H27      -40.6640   -1.2140   45.0260 H       1  NEO1        0.2100
     70  H28      -38.7122   -6.8829   42.6044 H       1  NEO1        0.0636
     71  H29      -42.6400    1.4330   42.0640 H       1  NEO1        0.2100
     72  H30      -38.0165   -8.9785   43.6262 H       1  NEO1        0.0448
     73  H31      -39.1740   -8.1727   44.6984 H       1  NEO1        0.0448
     74  H32      -41.2150   -3.4060   38.1570 H       1  NEO1        0.2101
     75  H33      -38.2557   -2.1915   38.5907 H       1  NEO1        0.0938
     76  H34      -35.6000   -3.2950   38.3950 H       1  NEO1        0.2100
     77  H35      -40.1057   -4.3125   39.6914 H       1  NEO1        0.0671
     78  H36      -40.7235   -3.1781   41.5415 H       1  NEO1        0.0651
     79  H37      -38.2580   -1.7854   42.0215 H       1  NEO1        0.0647
     80  H38      -38.5560   -4.8242   42.0602 H       1  NEO1        0.0584
     81  H39      -37.3943   -3.8519   42.9769 H       1  NEO1        0.0584
     82  H40      -42.1618   -0.4257   41.3772 H       1  NEO1        0.0927
     83  H41      -40.4977    1.3709   41.7338 H       1  NEO1        0.0535
     84  H42      -41.0075    1.9490   44.1947 H       1  NEO1        0.0637
     85  H43      -42.8243    0.4949   45.2483 H       1  NEO1        0.0646
     86  H44      -43.4489   -0.8352   43.2247 H       1  NEO1        0.0636
     87  H45      -42.1561   -2.6586   45.3297 H       1  NEO1        0.0448
     88  H46      -43.7967   -1.9832   45.4261 H       1  NEO1        0.0448
@<TRIPOS>BOND
     1    62    17    1
     2    63    17    1
     3    50     7    1
     4    17     4    1
     5    32     7    1
     6    32    76    1
     7    44     1    1
     8     7     4    1
     9     7    10    1
    10    74    30    1
    11     4     1    1
    12     4    47    1
    13    52     8    1
    14    58    13    1
    15    15    10    1
    16    15    31    1
    17     1    43    1
    18     1    16    1
    19    75    31    1
    20    30    33    1
    21    51     8    1
    22    10    13    1
    23    10    54    1
    24     8    21    1
    25    13    16    1
    26    13     3    1
    27    31    33    1
    28    31    18    1
    29    64    19    1
    30    45     2    1
    31    16     2    1
    32    16    61    1
    33    33    77    1
    34    33    34    1
    35     2    46    1
    36    66    21    1
    37    21    19    1
    38    21    23    1
    39    19     3    1
    40    19     6    1
    41    18    35    1
    42    57    12    1
    43    22    34    1
    44    22    37    1
    45    34    35    1
    46    34    78    1
    47    82    37    1
    48     6    27    1
    49    23    67    1
    50    23    12    1
    51    23    25    1
    52    35    79    1
    53    35    36    1
    54    83    38    1
    55    37    38    1
    56    37    24    1
    57    71    28    1
    58    80    36    1
    59    38    14    1
    60    38    39    1
    61    27    70    1
    62    27    25    1
    63    27    29    1
    64    36    81    1
    65    36    20    1
    66    60    14    1
    67    24    41    1
    68    25    68    1
    69    25     9    1
    70    28    39    1
    71    56    11    1
    72    86    41    1
    73    14    59    1
    74    72    29    1
    75    39    84    1
    76    39    40    1
    77    41    40    1
    78    41    42    1
    79    20    65    1
    80    29     5    1
    81    29    73    1
    82    53     9    1
    83    11    55    1
    84    11    42    1
    85     5    48    1
    86     5    49    1
    87    88    42    1
    88    40    85    1
    89    40    26    1
    90    42    87    1
    91    69    26    1
