MODEL 1
REMARK VINA RESULT:    -7.417      0.000      0.000
REMARK INTER + INTRA:         -11.951
REMARK INTER:                 -10.236
REMARK INTRA:                  -1.715
REMARK UNBOUND:                -1.715
REMARK  7 active torsions:
REMARK  status: ('A' for Active; 'I' for Inactive)
REMARK    1  A    between atoms: S_2  and  N_15 
REMARK    2  A    between atoms: O_4  and  C_23 
REMARK    3  A    between atoms: N_12  and  CA_19 
REMARK       I    between atoms: N_12  and  C_24 
REMARK    4  A    between atoms: N_13  and  CA_25 
REMARK       I    between atoms: N_13  and  C_27 
REMARK       I    between atoms: N_14  and  C_27 
REMARK    5  A    between atoms: CA_18  and  C_23 
REMARK    6  A    between atoms: C_24  and  CA_25 
REMARK    7  A    between atoms: CA_25  and  C_26 
ROOT
HETATM    1  CA  MEZ     1     -19.102 -15.391 -16.181  1.00  0.00     0.211 C 
ENDROOT
BRANCH   1   2
HETATM    2  N   MEZ     1     -18.086 -16.413 -16.283  1.00  0.00    -0.325 N 
HETATM    3  C   MEZ     1     -18.180 -17.473 -17.177  1.00  0.00     0.327 C 
HETATM    4  O   MEZ     1     -19.131 -17.625 -17.948  1.00  0.00    -0.247 OA
HETATM    5  N   MEZ     1     -17.088 -18.369 -17.117  1.00  0.00    -0.249 N 
HETATM    6  C   MEZ     1     -17.095 -19.585 -17.930  1.00  0.00     0.159 C 
HETATM    7  C   MEZ     1     -15.933 -18.343 -16.303  1.00  0.00     0.342 C 
HETATM    8  C   MEZ     1     -15.691 -20.180 -17.842  1.00  0.00     0.167 C 
HETATM    9  N   MEZ     1     -15.159 -19.496 -16.644  1.00  0.00    -0.225 N 
HETATM   10  O   MEZ     1     -15.610 -17.509 -15.471  1.00  0.00    -0.245 OA
HETATM   11  H   MEZ     1     -17.265 -16.337 -15.690  1.00  0.00     0.165 HD
BRANCH   9  12
HETATM   12  S   MEZ     1     -13.573 -19.807 -16.154  1.00  0.00     0.232 S 
HETATM   13  O   MEZ     1     -12.704 -18.730 -16.599  1.00  0.00    -0.206 OA
HETATM   14  O   MEZ     1     -13.567 -20.239 -14.765  1.00  0.00    -0.206 OA
HETATM   15  C   MEZ     1     -13.214 -21.231 -17.157  1.00  0.00     0.186 C 
ENDBRANCH   9  12
ENDBRANCH   1   2
BRANCH   1  16
HETATM   16  C   MEZ     1     -19.280 -15.042 -14.709  1.00  0.00     0.245 C 
HETATM   17  O   MEZ     1     -20.173 -14.304 -14.296  1.00  0.00    -0.271 OA
HETATM   18  N   MEZ     1     -18.354 -15.683 -13.884  1.00  0.00    -0.344 N 
HETATM   19  H   MEZ     1     -17.660 -16.281 -14.326  1.00  0.00     0.163 HD
BRANCH  18  20
HETATM   20  CA  MEZ     1     -18.352 -15.540 -12.430  1.00  0.00     0.199 A 
HETATM   21  C   MEZ     1     -19.173 -16.543 -11.607  1.00  0.00     0.160 A 
HETATM   22  S   MEZ     1     -19.795 -18.021 -12.488  1.00  0.00    -0.135 SA
HETATM   23  N   MEZ     1     -17.909 -17.005 -11.025  1.00  0.00    -0.219 NA
HETATM   24  C   MEZ     1     -18.998 -19.150 -11.240  1.00  0.00     0.029 C 
HETATM   25  CA  MEZ     1     -17.678 -18.429 -10.888  1.00  0.00     0.182 C 
HETATM   26  C   MEZ     1     -18.735 -20.508 -11.892  1.00  0.00     0.029 C 
HETATM   27  C   MEZ     1     -19.968 -19.312 -10.062  1.00  0.00     0.029 C 
HETATM   28  C   MEZ     1     -17.118 -16.145 -11.730  1.00  0.00     0.227 A 
HETATM   29  O   MEZ     1     -15.919 -16.031 -11.837  1.00  0.00    -0.277 OA
BRANCH  25  30
HETATM   30  C   MEZ     1     -17.172 -18.662  -9.500  1.00  0.00     0.160 C 
HETATM   31  OXT MEZ     1     -16.853 -19.750  -9.042  1.00  0.00    -0.649 OA
BRANCH  30  32
HETATM   32  O   MEZ     1     -17.114 -17.497  -8.809  1.00  0.00    -0.775 OA
HETATM   33  H   MEZ     1     -17.309 -16.723  -9.379  1.00  0.00     0.167 HD
ENDBRANCH  30  32
ENDBRANCH  25  30
ENDBRANCH  18  20
ENDBRANCH   1  16
BRANCH   1  34
HETATM   34  C   MEZ     1     -18.763 -14.174 -17.009  1.00  0.00    -0.026 A 
HETATM   35  C   MEZ     1     -17.486 -13.617 -16.941  1.00  0.00     0.010 A 
HETATM   36  C   MEZ     1     -17.174 -12.493 -17.706  1.00  0.00     0.001 A 
HETATM   37  C   MEZ     1     -18.138 -11.925 -18.537  1.00  0.00     0.000 A 
HETATM   38  C   MEZ     1     -19.415 -12.481 -18.604  1.00  0.00     0.001 A 
HETATM   39  C   MEZ     1     -19.728 -13.606 -17.840  1.00  0.00     0.010 A 
ENDBRANCH   1  34
TORSDOF 7
ENDMDL
