@<TRIPOS>MOLECULE
*****
 58 61 0 0 0
SMALL
GASTEIGER

@<TRIPOS>ATOM
      1  C1        12.9465    9.1398    5.5546 C.3     1  LEV1       -0.0473
      2  N1        14.8197    8.1337    6.8146 N.3     1  LEV1       -0.2912
      3  O1        12.2844    7.3523    7.9640 O.3     1  LEV1       -0.3718
      4  C2        13.6836    9.0968    6.9087 C.3     1  LEV1        0.0314
      5  N2        11.7770    4.6441    8.7456 N.3     1  LEV1       -0.2920
      6  O2        18.1904    5.5709    7.0420 O.3     1  LEV1       -0.3910
      7  C3        12.7037    8.7404    8.0559 C.3     1  LEV1        0.0635
      8  N3         9.4245    2.9388    8.8585 N.3     1  LEV1       -0.3029
      9  O3        19.4147    8.0855    5.3546 O.3     1  LEV1       -0.3668
     10  C4        13.2981    6.3504    7.6479 C.3     1  LEV1        0.0927
     11  O4        19.3940    8.2621    7.6559 O.3     1  LEV1       -0.3668
     12  C5        14.7217    6.9582    7.7210 C.3     1  LEV1        0.0438
     13  C6        16.1521    8.7814    6.8651 C.3     1  LEV1        0.0094
     14  C7        17.2618    7.7774    6.4787 C.3     1  LEV1        0.0487
     15  C8        17.1965    6.5337    7.4154 C.3     1  LEV1        0.0682
     16  C9        15.7863    5.8926    7.3560 C.3     1  LEV1        0.0062
     17  C10       15.6654    4.6847    8.3226 C.3     1  LEV1       -0.0135
     18  C11       14.2438    4.0771    8.2997 C.3     1  LEV1        0.1192
     19  C12       13.1767    5.1606    8.6346 C.3     1  LEV1        0.0693
     20  C13       11.1368    4.1578    7.4921 C.3     1  LEV1        0.0122
     21  C14        9.6352    3.8795    7.7293 C.3     1  LEV1        0.0114
     22  C15       10.0693    3.4369   10.0989 C.3     1  LEV1        0.0114
     23  C16       11.5751    3.7138    9.8858 C.3     1  LEV1        0.0122
     24  C17        9.7786    1.5379    8.5314 C.3     1  LEV1       -0.0127
     25  C18       18.6366    8.5079    6.4723 C.3     1  LEV1        0.1595
     26  F1        14.0317    3.5216    7.0906 F       1  LEV1       -0.2438
     27  H01       12.1276    9.8619    5.5864 H       1  LEV1        0.0245
     28  H02       13.6312    9.4376    4.7571 H       1  LEV1        0.0245
     29  H03       12.5321    8.1609    5.3020 H       1  LEV1        0.0245
     30  H04       14.0698   10.1008    7.1082 H       1  LEV1        0.0482
     31  H05       18.4450    5.7330    6.1150 H       1  LEV1        0.2098
     32  H06       13.1999    8.8878    9.0192 H       1  LEV1        0.0575
     33  H07       11.8182    9.3809    8.0202 H       1  LEV1        0.0575
     34  H08       19.5750    8.8660    4.7910 H       1  LEV1        0.2125
     35  H09       13.1193    6.0050    6.6257 H       1  LEV1        0.0628
     36  H10       19.5700    7.2990    7.6870 H       1  LEV1        0.2125
     37  H11       14.9045    7.2895    8.7482 H       1  LEV1        0.0492
     38  H12       16.3374    9.1704    7.8709 H       1  LEV1        0.0432
     39  H13       16.1727    9.6165    6.1588 H       1  LEV1        0.0432
     40  H14       17.0480    7.4435    5.4586 H       1  LEV1        0.0387
     41  H15       17.3858    6.8506    8.4453 H       1  LEV1        0.0601
     42  H16       15.6034    5.5449    6.3348 H       1  LEV1        0.0343
     43  H17       15.9058    5.0016    9.3406 H       1  LEV1        0.0297
     44  H18       16.3862    3.9106    8.0483 H       1  LEV1        0.0297
     45  H19       14.1963    3.2698    9.0343 H       1  LEV1        0.0668
     46  H20       13.4328    5.5577    9.6212 H       1  LEV1        0.0517
     47  H21       11.6205    3.2402    7.1504 H       1  LEV1        0.0439
     48  H22       11.2248    4.9104    6.7052 H       1  LEV1        0.0439
     49  H23        9.1394    4.8267    7.9613 H       1  LEV1        0.0439
     50  H24        9.1856    3.4767    6.8175 H       1  LEV1        0.0439
     51  H25        9.9363    2.7123   10.9070 H       1  LEV1        0.0439
     52  H26        9.5833    4.3703   10.3975 H       1  LEV1        0.0439
     53  H27       11.9817    4.1571   10.7988 H       1  LEV1        0.0439
     54  H28       12.0958    2.7717    9.6964 H       1  LEV1        0.0439
     55  H29       10.8463    1.4442    8.3176 H       1  LEV1        0.0391
     56  H30        9.5277    0.8868    9.3731 H       1  LEV1        0.0391
     57  H31        9.2128    1.2085    7.6558 H       1  LEV1        0.0391
     58  H32       18.5061    9.5972    6.3800 H       1  LEV1        0.0909
@<TRIPOS>BOND
     1    28     1    1
     2    34     9    1
     3    29     1    1
     4     9    25    1
     5    40    14    1
     6     1    27    1
     7     1     4    1
     8    39    13    1
     9    31     6    1
    10    42    16    1
    11    14    25    1
    12    14    13    1
    13    14    15    1
    14    58    25    1
    15    25    11    1
    16    35    10    1
    17     2    13    1
    18     2     4    1
    19     2    12    1
    20    13    38    1
    21    48    20    1
    22     4    30    1
    23     4     7    1
    24    50    21    1
    25     6    15    1
    26    26    18    1
    27    47    20    1
    28    16    15    1
    29    16    12    1
    30    16    17    1
    31    15    41    1
    32    57    24    1
    33    20    21    1
    34    20     5    1
    35    10    12    1
    36    10     3    1
    37    10    19    1
    38    12    37    1
    39    11    36    1
    40    21    49    1
    41    21     8    1
    42     3     7    1
    43    33     7    1
    44     7    32    1
    45    44    17    1
    46    18    17    1
    47    18    19    1
    48    18    45    1
    49    17    43    1
    50    24     8    1
    51    24    55    1
    52    24    56    1
    53    19     5    1
    54    19    46    1
    55     5    23    1
    56     8    22    1
    57    54    23    1
    58    23    22    1
    59    23    53    1
    60    22    52    1
    61    22    51    1
