MODEL 1
REMARK VINA RESULT:    -6.749      0.000      0.000
REMARK INTER + INTRA:          -8.003
REMARK INTER:                  -7.735
REMARK INTRA:                  -0.268
REMARK UNBOUND:                -0.268
REMARK  4 active torsions:
REMARK  status: ('A' for Active; 'I' for Inactive)
REMARK    1  A    between atoms: C3_3  and  O5_20 
REMARK    2  A    between atoms: C6_6  and  C7_7 
REMARK    3  A    between atoms: C11_12  and  O4_19 
REMARK    4  A    between atoms: C13_14  and  O3_18 
ROOT
HETATM    1  C7  API     1     -15.154  20.213 -12.816  1.00  0.00     0.090 A 
HETATM    2  C8  API     1     -14.967  19.307 -11.845  1.00  0.00     0.094 A 
HETATM    3  C9  API     1     -15.009  19.746 -10.443  1.00  0.00     0.190 A 
HETATM    4  O1  API     1     -14.840  18.961  -9.517  1.00  0.00    -0.287 OA
HETATM    5  C10 API     1     -15.263  21.169 -10.195  1.00  0.00     0.081 A 
HETATM    6  C11 API     1     -15.323  21.690  -8.898  1.00  0.00     0.085 A 
HETATM    7  C12 API     1     -15.568  23.047  -8.698  1.00  0.00     0.074 A 
HETATM    8  C13 API     1     -15.753  23.874  -9.803  1.00  0.00     0.071 A 
HETATM    9  C14 API     1     -15.695  23.366 -11.099  1.00  0.00     0.075 A 
HETATM   10  C15 API     1     -15.450  22.007 -11.293  1.00  0.00     0.095 A 
HETATM   11  O2  API     1     -15.406  21.558 -12.589  1.00  0.00    -0.309 OA
ENDROOT
BRANCH   1  12
HETATM   12  C6  API     1     -15.134  19.836 -14.243  1.00  0.00    -0.002 A 
HETATM   13  C1  API     1     -16.340  19.702 -14.949  1.00  0.00     0.017 A 
HETATM   14  C2  API     1     -16.345  19.354 -16.304  1.00  0.00     0.037 A 
HETATM   15  C3  API     1     -15.138  19.145 -16.959  1.00  0.00     0.065 A 
HETATM   16  C4  API     1     -13.931  19.281 -16.285  1.00  0.00     0.037 A 
HETATM   17  C5  API     1     -13.928  19.629 -14.932  1.00  0.00     0.017 A 
BRANCH  15  18
HETATM   18  O5  API     1     -15.093  18.806 -18.278  1.00  0.00    -0.361 OA
HETATM   19  H10 API     1     -14.174  18.878 -18.588  1.00  0.00     0.217 HD
ENDBRANCH  15  18
ENDBRANCH   1  12
BRANCH   6  20
HETATM   20  O4  API     1     -15.150  20.923  -7.778  1.00  0.00    -0.360 OA
HETATM   21  H9  API     1     -16.008  20.885  -7.297  1.00  0.00     0.217 HD
ENDBRANCH   6  20
BRANCH   8  22
HETATM   22  O3  API     1     -15.994  25.208  -9.658  1.00  0.00    -0.361 OA
HETATM   23  H8  API     1     -15.734  25.478  -8.761  1.00  0.00     0.217 HD
ENDBRANCH   8  22
TORSDOF 4
ENDMDL
