MODEL 1
REMARK VINA RESULT:    -7.896      0.000      0.000
REMARK INTER + INTRA:         -12.367
REMARK INTER:                 -11.127
REMARK INTRA:                  -1.240
REMARK UNBOUND:                -1.240
REMARK  10 active torsions:
REMARK  status: ('A' for Active; 'I' for Inactive)
REMARK    1  A    between atoms: C4_4  and  C7_7 
REMARK    2  A    between atoms: C11_12  and  O11_32 
REMARK    3  A    between atoms: C12_13  and  O10_31 
REMARK    4  A    between atoms: C13_14  and  O3_18 
REMARK    5  A    between atoms: O3_18  and  C16_19 
REMARK    6  A    between atoms: C17_20  and  O9_30 
REMARK    7  A    between atoms: C18_21  and  O8_29 
REMARK    8  A    between atoms: C19_22  and  O7_28 
REMARK    9  A    between atoms: C20_23  and  C21_25 
REMARK   10  A    between atoms: C21_25  and  O6_27 
ROOT
HETATM    1  C7  BAI     1     -14.414  20.792  -7.297  1.00  0.00     0.090 A 
HETATM    2  C8  BAI     1     -14.791  22.060  -7.071  1.00  0.00     0.094 A 
HETATM    3  C9  BAI     1     -15.243  22.879  -8.203  1.00  0.00     0.190 A 
HETATM    4  O1  BAI     1     -15.602  24.043  -8.061  1.00  0.00    -0.287 OA
HETATM    5  C10 BAI     1     -15.248  22.248  -9.525  1.00  0.00     0.084 A 
HETATM    6  C11 BAI     1     -15.655  22.942 -10.665  1.00  0.00     0.118 A 
HETATM    7  C12 BAI     1     -15.644  22.308 -11.909  1.00  0.00     0.134 A 
HETATM    8  C13 BAI     1     -15.240  20.976 -12.018  1.00  0.00     0.110 A 
HETATM    9  C14 BAI     1     -14.811  20.294 -10.875  1.00  0.00     0.078 A 
HETATM   10  C15 BAI     1     -14.825  20.927  -9.630  1.00  0.00     0.096 A 
HETATM   11  O2  BAI     1     -14.404  20.194  -8.549  1.00  0.00    -0.309 OA
ENDROOT
BRANCH   8  12
HETATM   12  O3  BAI     1     -15.147  20.281 -13.192  1.00  0.00    -0.315 OA
BRANCH  12  13
HETATM   13  C16 BAI     1     -14.387  20.934 -14.217  1.00  0.00     0.299 C 
HETATM   14  C17 BAI     1     -13.294  19.957 -14.708  1.00  0.00     0.205 C 
HETATM   15  C18 BAI     1     -13.494  19.619 -16.179  1.00  0.00     0.183 C 
HETATM   16  C19 BAI     1     -14.940  19.195 -16.418  1.00  0.00     0.189 C 
HETATM   17  C20 BAI     1     -15.904  20.322 -16.008  1.00  0.00     0.253 C 
HETATM   18  O4  BAI     1     -15.246  21.370 -15.283  1.00  0.00    -0.340 OA
BRANCH  14  19
HETATM   19  O9  BAI     1     -11.968  20.500 -14.559  1.00  0.00    -0.388 OA
HETATM   20  H16 BAI     1     -11.494  19.860 -13.988  1.00  0.00     0.210 HD
ENDBRANCH  14  19
BRANCH  15  21
HETATM   21  O8  BAI     1     -12.618  18.542 -16.561  1.00  0.00    -0.390 OA
HETATM   22  H15 BAI     1     -13.210  17.868 -16.953  1.00  0.00     0.210 HD
ENDBRANCH  15  21
BRANCH  16  23
HETATM   23  O7  BAI     1     -15.087  18.882 -17.814  1.00  0.00    -0.390 OA
HETATM   24  H14 BAI     1     -16.054  18.823 -17.959  1.00  0.00     0.210 HD
ENDBRANCH  16  23
BRANCH  17  25
HETATM   25  C21 BAI     1     -17.169  19.809 -15.304  1.00  0.00     0.172 C 
HETATM   26  O5  BAI     1     -17.635  18.680 -15.366  1.00  0.00    -0.648 OA
BRANCH  25  27
HETATM   27  O6  BAI     1     -17.752  20.711 -14.490  1.00  0.00    -0.774 OA
HETATM   28  H13 BAI     1     -18.682  20.744 -14.795  1.00  0.00     0.167 HD
ENDBRANCH  25  27
ENDBRANCH  17  25
ENDBRANCH  12  13
ENDBRANCH   8  12
BRANCH   7  29
HETATM   29  O10 BAI     1     -16.023  23.041 -13.006  1.00  0.00    -0.356 OA
HETATM   30  H17 BAI     1     -15.223  23.034 -13.578  1.00  0.00     0.218 HD
ENDBRANCH   7  29
BRANCH   6  31
HETATM   31  O11 BAI     1     -16.067  24.253 -10.647  1.00  0.00    -0.357 OA
HETATM   32  H18 BAI     1     -15.801  24.638  -9.778  1.00  0.00     0.217 HD
ENDBRANCH   6  31
BRANCH   1  33
HETATM   33  C4  BAI     1     -13.940  19.918  -6.206  1.00  0.00    -0.002 A 
HETATM   34  C3  BAI     1     -14.457  20.018  -4.905  1.00  0.00     0.014 A 
HETATM   35  C2  BAI     1     -14.001  19.175  -3.888  1.00  0.00     0.001 A 
HETATM   36  C1  BAI     1     -13.027  18.218  -4.158  1.00  0.00     0.000 A 
HETATM   37  C6  BAI     1     -12.511  18.098  -5.446  1.00  0.00     0.001 A 
HETATM   38  C5  BAI     1     -12.967  18.940  -6.464  1.00  0.00     0.014 A 
ENDBRANCH   1  33
TORSDOF 10
ENDMDL
