MODEL 1
REMARK VINA RESULT:    -7.323      0.000      0.000
REMARK INTER + INTRA:          -8.219
REMARK INTER:                  -8.180
REMARK INTRA:                  -0.039
REMARK UNBOUND:                -0.039
REMARK  2 active torsions:
REMARK  status: ('A' for Active; 'I' for Inactive)
REMARK    1  A    between atoms: O1_2  and  C2_3 
REMARK    2  A    between atoms: C3_4  and  O4_24 
ROOT
HETATM    1  C2  BER     1     -16.003  18.194 -13.442  1.00  0.00     0.102 A 
HETATM    2  C3  BER     1     -14.797  18.457 -14.121  1.00  0.00     0.114 A 
HETATM    3  C4  BER     1     -14.809  19.101 -15.385  1.00  0.00     0.026 A 
HETATM    4  C5  BER     1     -13.644  19.335 -16.123  1.00  0.00     0.106 A 
HETATM    5  N1  BER     1     -13.661  19.949 -17.329  1.00  0.00    -0.355 N 
HETATM    6  C6  BER     1     -14.828  20.394 -17.875  1.00  0.00     0.046 A 
HETATM    7  C7  BER     1     -16.026  20.175 -17.179  1.00  0.00     0.043 A 
HETATM    8  C8  BER     1     -16.025  19.529 -15.938  1.00  0.00    -0.019 A 
HETATM    9  C9  BER     1     -17.215  19.299 -15.238  1.00  0.00     0.015 A 
HETATM   10  C10 BER     1     -17.203  18.635 -14.009  1.00  0.00     0.040 A 
HETATM   11  C11 BER     1     -14.741  21.047 -19.197  1.00  0.00    -0.000 A 
HETATM   12  C12 BER     1     -15.755  21.896 -19.685  1.00  0.00     0.054 A 
HETATM   13  C13 BER     1     -15.623  22.439 -20.948  1.00  0.00     0.105 A 
HETATM   14  C14 BER     1     -14.537  22.180 -21.742  1.00  0.00     0.105 A 
HETATM   15  C15 BER     1     -13.511  21.369 -21.316  1.00  0.00     0.047 A 
HETATM   16  C16 BER     1     -13.608  20.814 -20.029  1.00  0.00    -0.041 A 
HETATM   17  C17 BER     1     -12.511  19.929 -19.508  1.00  0.00     0.060 C 
HETATM   18  C18 BER     1     -12.361  20.172 -18.017  1.00  0.00     0.133 C 
HETATM   19  O2  BER     1     -14.607  22.809 -22.943  1.00  0.00    -0.323 OA
HETATM   20  C19 BER     1     -15.872  23.496 -22.820  1.00  0.00     0.352 A 
HETATM   21  O3  BER     1     -16.518  23.267 -21.548  1.00  0.00    -0.323 OA
ENDROOT
BRANCH   1  22
HETATM   22  O1  BER     1     -15.936  17.490 -12.272  1.00  0.00    -0.353 OA
HETATM   23  C1  BER     1     -15.976  18.209 -11.045  1.00  0.00     0.210 C 
ENDBRANCH   1  22
BRANCH   2  24
HETATM   24  O4  BER     1     -13.541  18.085 -13.689  1.00  0.00    -0.352 OA
HETATM   25  C20 BER     1     -12.900  18.948 -12.751  1.00  0.00     0.210 C 
ENDBRANCH   2  24
TORSDOF 2
ENDMDL
