MODEL 1
REMARK VINA RESULT:    -7.090      0.000      0.000
REMARK INTER + INTRA:          -8.635
REMARK INTER:                  -8.541
REMARK INTRA:                  -0.094
REMARK UNBOUND:                -0.094
REMARK  6 active torsions:
REMARK  status: ('A' for Active; 'I' for Inactive)
REMARK    1  A    between atoms: C2_2  and  O6_21 
REMARK    2  A    between atoms: C3_3  and  C10_13 
REMARK    3  A    between atoms: C6_7  and  O3_12 
REMARK    4  A    between atoms: C8_9  and  O2_11 
REMARK    5  A    between atoms: C12_15  and  O5_20 
REMARK    6  A    between atoms: C13_16  and  O4_19 
ROOT
HETATM    1  C1  CAT     1     -16.228  21.475 -10.923  1.00  0.00     0.079 C 
HETATM    2  C2  CAT     1     -16.048  21.331 -12.433  1.00  0.00     0.156 C 
HETATM    3  C3  CAT     1     -15.531  19.910 -12.728  1.00  0.00     0.191 C 
HETATM    4  O1  CAT     1     -14.261  19.670 -12.109  1.00  0.00    -0.338 OA
HETATM    5  C4  CAT     1     -14.177  20.027 -10.789  1.00  0.00     0.081 A 
HETATM    6  C5  CAT     1     -13.084  19.499 -10.099  1.00  0.00     0.074 A 
HETATM    7  C6  CAT     1     -12.908  19.799  -8.755  1.00  0.00     0.071 A 
HETATM    8  C7  CAT     1     -13.808  20.620  -8.090  1.00  0.00     0.073 A 
HETATM    9  C8  CAT     1     -14.892  21.151  -8.788  1.00  0.00     0.077 A 
HETATM   10  C9  CAT     1     -15.083  20.885 -10.152  1.00  0.00     0.011 A 
ENDROOT
BRANCH   3  11
HETATM   11  C10 CAT     1     -15.361  19.680 -14.223  1.00  0.00    -0.024 A 
HETATM   12  C11 CAT     1     -16.474  19.458 -15.052  1.00  0.00     0.049 A 
HETATM   13  C12 CAT     1     -16.288  19.221 -16.406  1.00  0.00     0.099 A 
HETATM   14  C13 CAT     1     -15.012  19.205 -16.961  1.00  0.00     0.098 A 
HETATM   15  C14 CAT     1     -13.898  19.423 -16.162  1.00  0.00     0.040 A 
HETATM   16  C15 CAT     1     -14.074  19.658 -14.794  1.00  0.00     0.013 A 
BRANCH  13  17
HETATM   17  O5  CAT     1     -17.379  19.000 -17.198  1.00  0.00    -0.358 OA
HETATM   18  H13 CAT     1     -18.121  19.413 -16.713  1.00  0.00     0.217 HD
ENDBRANCH  13  17
BRANCH  14  19
HETATM   19  O4  CAT     1     -14.905  18.967 -18.303  1.00  0.00    -0.358 OA
HETATM   20  H12 CAT     1     -13.977  19.101 -18.562  1.00  0.00     0.217 HD
ENDBRANCH  14  19
ENDBRANCH   3  11
BRANCH   2  21
HETATM   21  O6  CAT     1     -17.311  21.594 -13.053  1.00  0.00    -0.392 OA
HETATM   22  H14 CAT     1     -17.148  22.238 -13.767  1.00  0.00     0.210 HD
ENDBRANCH   2  21
BRANCH   9  23
HETATM   23  O2  CAT     1     -15.738  21.939  -8.057  1.00  0.00    -0.360 OA
HETATM   24  H7  CAT     1     -15.877  21.548  -7.180  1.00  0.00     0.217 HD
ENDBRANCH   9  23
BRANCH   7  25
HETATM   25  O3  CAT     1     -11.831  19.259  -8.116  1.00  0.00    -0.361 OA
HETATM   26  H8  CAT     1     -11.271  19.982  -7.789  1.00  0.00     0.217 HD
ENDBRANCH   7  25
TORSDOF 6
ENDMDL
