MODEL 1
REMARK VINA RESULT:    -6.032      0.000      0.000
REMARK INTER + INTRA:         -10.864
REMARK INTER:                  -9.205
REMARK INTRA:                  -1.659
REMARK UNBOUND:                -1.659
REMARK  10 active torsions:
REMARK  status: ('A' for Active; 'I' for Inactive)
REMARK    1  A    between atoms: O1_2  and  C2_3 
REMARK    2  A    between atoms: C3_4  and  O6_27 
REMARK    3  A    between atoms: C6_7  and  C8_9 
REMARK    4  A    between atoms: C9_10  and  C10_11 
REMARK    5  A    between atoms: C10_11  and  C11_13 
REMARK    6  A    between atoms: C11_13  and  C12_14 
REMARK    7  A    between atoms: C12_14  and  C13_16 
REMARK    8  A    between atoms: C14_17  and  C15_18 
REMARK    9  A    between atoms: C17_20  and  O5_25 
REMARK   10  A    between atoms: C18_21  and  O4_24 
ROOT
HETATM    1  C11 CUR     1     -15.761  20.514 -17.905  1.00  0.00     0.165 C 
ENDROOT
BRANCH   1   2
HETATM    2  C10 CUR     1     -14.321  20.109 -18.095  1.00  0.00     0.156 C 
HETATM    3  O2  CUR     1     -13.881  19.682 -19.161  1.00  0.00    -0.293 OA
BRANCH   2   4
HETATM    4  C9  CUR     1     -13.376  20.192 -16.944  1.00  0.00     0.051 C 
HETATM    5  C8  CUR     1     -12.995  21.332 -16.349  1.00  0.00     0.015 C 
BRANCH   5   6
HETATM    6  C6  CUR     1     -12.067  21.367 -15.207  1.00  0.00    -0.033 A 
HETATM    7  C5  CUR     1     -10.770  21.884 -15.323  1.00  0.00     0.014 A 
HETATM    8  C4  CUR     1      -9.925  21.930 -14.213  1.00  0.00     0.040 A 
HETATM    9  C3  CUR     1     -10.381  21.467 -12.980  1.00  0.00     0.099 A 
HETATM   10  C2  CUR     1     -11.679  20.959 -12.834  1.00  0.00     0.102 A 
HETATM   11  C7  CUR     1     -12.518  20.920 -13.954  1.00  0.00     0.051 A 
BRANCH   9  12
HETATM   12  O6  CUR     1      -9.554  21.511 -11.889  1.00  0.00    -0.358 OA
HETATM   13  H20 CUR     1      -9.257  20.614 -11.676  1.00  0.00     0.217 HD
ENDBRANCH   9  12
BRANCH  10  14
HETATM   14  O1  CUR     1     -12.025  20.537 -11.577  1.00  0.00    -0.353 OA
HETATM   15  C1  CUR     1     -12.235  19.147 -11.382  1.00  0.00     0.210 C 
ENDBRANCH  10  14
ENDBRANCH   5   6
ENDBRANCH   2   4
ENDBRANCH   1   2
BRANCH   1  16
HETATM   16  C12 CUR     1     -16.511  19.751 -16.841  1.00  0.00     0.156 C 
HETATM   17  O3  CUR     1     -17.376  18.930 -17.144  1.00  0.00    -0.293 OA
BRANCH  16  18
HETATM   18  C13 CUR     1     -16.232  20.084 -15.414  1.00  0.00     0.051 C 
HETATM   19  C14 CUR     1     -16.450  19.179 -14.449  1.00  0.00     0.015 C 
BRANCH  19  20
HETATM   20  C15 CUR     1     -16.184  19.441 -13.030  1.00  0.00    -0.033 A 
HETATM   21  C16 CUR     1     -15.990  20.746 -12.545  1.00  0.00     0.051 A 
HETATM   22  C17 CUR     1     -15.716  20.965 -11.193  1.00  0.00     0.102 A 
HETATM   23  C18 CUR     1     -15.631  19.862 -10.336  1.00  0.00     0.099 A 
HETATM   24  C19 CUR     1     -15.803  18.565 -10.799  1.00  0.00     0.040 A 
HETATM   25  C20 CUR     1     -16.072  18.354 -12.152  1.00  0.00     0.014 A 
BRANCH  22  26
HETATM   26  O5  CUR     1     -15.513  22.182 -10.594  1.00  0.00    -0.353 OA
HETATM   27  C21 CUR     1     -14.710  23.117 -11.305  1.00  0.00     0.210 C 
ENDBRANCH  22  26
BRANCH  23  28
HETATM   28  O4  CUR     1     -15.367  20.044  -9.006  1.00  0.00    -0.358 OA
HETATM   29  H16 CUR     1     -16.053  19.526  -8.541  1.00  0.00     0.217 HD
ENDBRANCH  23  28
ENDBRANCH  19  20
ENDBRANCH  16  18
ENDBRANCH   1  16
TORSDOF 10
ENDMDL
