MODEL 1
REMARK VINA RESULT:    -6.687      0.000      0.000
REMARK INTER + INTRA:          -7.906
REMARK INTER:                  -7.860
REMARK INTRA:                  -0.046
REMARK UNBOUND:                -0.046
REMARK  5 active torsions:
REMARK  status: ('A' for Active; 'I' for Inactive)
REMARK    1  A    between atoms: C2_2  and  C7_10 
REMARK    2  A    between atoms: C4_4  and  O3_9 
REMARK    3  A    between atoms: C5_5  and  O2_8 
REMARK    4  A    between atoms: C6_6  and  O1_7 
REMARK    5  A    between atoms: C7_10  and  O5_12 
ROOT
HETATM    1  C1  GAL     1     -23.233   6.632 -18.181  1.00  0.00     0.057 A 
HETATM    2  C2  GAL     1     -22.636   5.823 -19.164  1.00  0.00     0.043 A 
HETATM    3  C3  GAL     1     -22.563   6.262 -20.495  1.00  0.00     0.057 A 
HETATM    4  C4  GAL     1     -23.086   7.503 -20.830  1.00  0.00     0.102 A 
HETATM    5  C5  GAL     1     -23.675   8.305 -19.862  1.00  0.00     0.132 A 
HETATM    6  C6  GAL     1     -23.749   7.873 -18.543  1.00  0.00     0.102 A 
ENDROOT
BRANCH   2   7
HETATM    7  C7  GAL     1     -22.068   4.493 -18.838  1.00  0.00     0.176 C 
HETATM    8  O4  GAL     1     -22.622   3.420 -18.983  1.00  0.00    -0.646 OA
BRANCH   7   9
HETATM    9  O5  GAL     1     -20.821   4.570 -18.339  1.00  0.00    -0.773 OA
HETATM   10  H6  GAL     1     -20.311   4.989 -19.066  1.00  0.00     0.167 HD
ENDBRANCH   7   9
ENDBRANCH   2   7
BRANCH   6  11
HETATM   11  O1  GAL     1     -24.340   8.705 -17.633  1.00  0.00    -0.358 OA
HETATM   12  H3  GAL     1     -24.573   8.185 -16.844  1.00  0.00     0.217 HD
ENDBRANCH   6  11
BRANCH   4  13
HETATM   13  O3  GAL     1     -23.018   7.934 -22.124  1.00  0.00    -0.358 OA
HETATM   14  H5  GAL     1     -22.469   7.265 -22.582  1.00  0.00     0.217 HD
ENDBRANCH   4  13
BRANCH   5  15
HETATM   15  O2  GAL     1     -24.181   9.523 -20.224  1.00  0.00    -0.356 OA
HETATM   16  H4  GAL     1     -23.447   9.958 -20.706  1.00  0.00     0.218 HD
ENDBRANCH   5  15
TORSDOF 5
ENDMDL
