MODEL 1
REMARK VINA RESULT:    -7.804      0.000      0.000
REMARK INTER + INTRA:         -11.070
REMARK INTER:                 -10.085
REMARK INTRA:                  -0.985
REMARK UNBOUND:                -0.985
REMARK  6 active torsions:
REMARK  status: ('A' for Active; 'I' for Inactive)
REMARK    1  A    between atoms: C3_3  and  C4_4 
REMARK    2  A    between atoms: C4_4  and  C5_5 
REMARK    3  A    between atoms: C5_5  and  C6_6 
REMARK    4  A    between atoms: C6_6  and  C8_8 
REMARK    5  A    between atoms: C6_6  and  O2_31 
REMARK    6  A    between atoms: C23_23  and  O1_27 
ROOT
HETATM    1  C8  GIN     1     -16.557  18.757 -13.965  1.00  0.00     0.024 C 
HETATM    2  C9  GIN     1     -15.082  18.423 -14.201  1.00  0.00     0.009 C 
HETATM    3  C10 GIN     1     -14.562  18.152 -12.794  1.00  0.00     0.011 C 
HETATM    4  C11 GIN     1     -15.308  19.152 -11.860  1.00  0.00    -0.032 C 
HETATM    5  C12 GIN     1     -16.479  19.732 -12.750  1.00  0.00     0.001 C 
HETATM    6  C13 GIN     1     -16.303  21.213 -13.069  1.00  0.00     0.006 C 
HETATM    7  C14 GIN     1     -16.146  22.069 -11.810  1.00  0.00     0.006 C 
HETATM    8  C15 GIN     1     -15.268  21.450 -10.691  1.00  0.00     0.003 C 
HETATM    9  C16 GIN     1     -14.347  20.297 -11.232  1.00  0.00    -0.032 C 
HETATM   10  C17 GIN     1     -13.511  19.706 -10.057  1.00  0.00     0.011 C 
HETATM   11  C18 GIN     1     -12.822  20.740  -9.163  1.00  0.00     0.007 C 
HETATM   12  C19 GIN     1     -13.837  21.747  -8.588  1.00  0.00     0.004 C 
HETATM   13  C20 GIN     1     -14.588  22.523  -9.726  1.00  0.00    -0.035 C 
HETATM   14  C21 GIN     1     -15.719  23.405  -9.094  1.00  0.00     0.012 C 
HETATM   15  C22 GIN     1     -15.616  23.620  -7.581  1.00  0.00     0.033 C 
HETATM   16  C23 GIN     1     -14.186  23.852  -7.105  1.00  0.00     0.126 C 
HETATM   17  C24 GIN     1     -13.261  22.631  -7.410  1.00  0.00    -0.017 C 
HETATM   18  C25 GIN     1     -11.802  23.082  -7.635  1.00  0.00     0.018 C 
HETATM   19  C26 GIN     1     -13.247  21.747  -6.129  1.00  0.00     0.018 C 
HETATM   20  C27 GIN     1     -13.631  23.465 -10.497  1.00  0.00     0.016 C 
HETATM   21  C28 GIN     1     -13.331  20.863 -12.278  1.00  0.00     0.016 C 
HETATM   22  C29 GIN     1     -15.994  18.279 -10.763  1.00  0.00     0.016 C 
ENDROOT
BRANCH   1  23
HETATM   23  C6  GIN     1     -17.345  19.174 -15.235  1.00  0.00     0.058 C 
HETATM   24  C7  GIN     1     -18.445  18.152 -15.558  1.00  0.00     0.046 C 
BRANCH  23  25
HETATM   25  C5  GIN     1     -16.424  19.422 -16.463  1.00  0.00     0.041 C 
BRANCH  25  26
HETATM   26  C4  GIN     1     -15.808  20.814 -16.656  1.00  0.00     0.030 C 
BRANCH  26  27
HETATM   27  C3  GIN     1     -14.319  20.885 -16.485  1.00  0.00    -0.025 C 
HETATM   28  C2  GIN     1     -13.616  21.857 -15.871  1.00  0.00    -0.091 C 
HETATM   29  C1  GIN     1     -12.116  21.771 -15.759  1.00  0.00     0.042 C 
HETATM   30  C30 GIN     1     -14.213  23.094 -15.259  1.00  0.00     0.042 C 
ENDBRANCH  26  27
ENDBRANCH  25  26
ENDBRANCH  23  25
BRANCH  23  31
HETATM   31  O2  GIN     1     -17.994  20.432 -14.993  1.00  0.00    -0.390 OA
HETATM   32  H49 GIN     1     -17.705  20.756 -14.123  1.00  0.00     0.210 HD
ENDBRANCH  23  31
ENDBRANCH   1  23
BRANCH  16  33
HETATM   33  O1  GIN     1     -13.692  25.056  -7.686  1.00  0.00    -0.395 OA
HETATM   34  H39 GIN     1     -14.402  25.435  -8.233  1.00  0.00     0.210 HD
ENDBRANCH  16  33
TORSDOF 6
ENDMDL
