MODEL 1
REMARK VINA RESULT:    -8.223      0.000      0.000
REMARK INTER + INTRA:         -16.122
REMARK INTER:                 -13.511
REMARK INTRA:                  -2.610
REMARK UNBOUND:                -2.610
REMARK  15 active torsions:
REMARK  status: ('A' for Active; 'I' for Inactive)
REMARK    1  A    between atoms: C5_5  and  C42_56 
REMARK    2  A    between atoms: C15_16  and  O2_29 
REMARK    3  A    between atoms: O2_29  and  C28_30 
REMARK    4  A    between atoms: C29_31  and  O8_41 
REMARK    5  A    between atoms: C30_32  and  O7_40 
REMARK    6  A    between atoms: C31_33  and  O6_39 
REMARK    7  A    between atoms: C32_34  and  C33_36 
REMARK    8  A    between atoms: C33_36  and  O5_38 
REMARK    9  A    between atoms: O8_41  and  C34_42 
REMARK   10  A    between atoms: C35_43  and  O14_53 
REMARK   11  A    between atoms: C36_44  and  O13_52 
REMARK   12  A    between atoms: C37_45  and  O12_51 
REMARK   13  A    between atoms: C38_46  and  C39_48 
REMARK   14  A    between atoms: C39_48  and  O11_50 
REMARK   15  A    between atoms: C42_56  and  O16_58 
ROOT
HETATM    1  C1  GRA     1     -23.090  22.345   3.643  1.00  0.00     0.016 C 
HETATM    2  C2  GRA     1     -22.791  22.077   2.139  1.00  0.00    -0.036 C 
HETATM    3  C3  GRA     1     -23.824  21.045   1.618  1.00  0.00     0.011 C 
HETATM    4  C4  GRA     1     -23.677  19.647   2.217  1.00  0.00     0.021 C 
HETATM    5  C5  GRA     1     -22.260  19.064   2.068  1.00  0.00     0.042 C 
HETATM    6  C6  GRA     1     -21.222  20.092   2.584  1.00  0.00     0.030 C 
HETATM    7  C7  GRA     1     -21.325  21.530   1.998  1.00  0.00     0.025 C 
HETATM    8  C8  GRA     1     -20.627  21.772   0.639  1.00  0.00    -0.062 C 
HETATM    9  C9  GRA     1     -19.603  21.005   0.214  1.00  0.00     0.054 C 
HETATM   10  C10 GRA     1     -18.738  21.332  -0.954  1.00  0.00     0.155 C 
HETATM   11  O1  GRA     1     -17.923  20.479  -1.302  1.00  0.00    -0.293 OA
HETATM   12  C11 GRA     1     -18.928  22.676  -1.676  1.00  0.00     0.077 C 
HETATM   13  C12 GRA     1     -17.688  23.197  -2.524  1.00  0.00    -0.028 C 
HETATM   14  C13 GRA     1     -17.339  22.160  -3.634  1.00  0.00     0.013 C 
HETATM   15  C14 GRA     1     -16.362  22.667  -4.688  1.00  0.00     0.034 C 
HETATM   16  C15 GRA     1     -16.831  23.946  -5.376  1.00  0.00     0.133 C 
HETATM   17  C16 GRA     1     -17.159  25.082  -4.355  1.00  0.00    -0.017 C 
HETATM   18  C17 GRA     1     -18.149  24.512  -3.267  1.00  0.00     0.005 C 
HETATM   19  C18 GRA     1     -18.692  25.561  -2.278  1.00  0.00     0.007 C 
HETATM   20  C19 GRA     1     -19.896  25.021  -1.498  1.00  0.00     0.011 C 
HETATM   21  C20 GRA     1     -19.614  23.716  -0.707  1.00  0.00    -0.021 C 
HETATM   22  C21 GRA     1     -20.981  23.053  -0.136  1.00  0.00    -0.012 C 
HETATM   23  C22 GRA     1     -21.743  24.027   0.802  1.00  0.00     0.015 C 
HETATM   24  C23 GRA     1     -23.013  23.430   1.405  1.00  0.00     0.011 C 
HETATM   25  C24 GRA     1     -21.948  22.648  -1.291  1.00  0.00     0.021 C 
HETATM   26  C25 GRA     1     -18.689  24.108   0.487  1.00  0.00     0.017 C 
HETATM   27  C26 GRA     1     -17.861  26.219  -5.151  1.00  0.00     0.018 C 
HETATM   28  C27 GRA     1     -15.877  25.699  -3.762  1.00  0.00     0.018 C 
HETATM   29  C40 GRA     1     -16.440  23.378  -1.630  1.00  0.00     0.016 C 
HETATM   30  C41 GRA     1     -21.987  18.641   0.617  1.00  0.00     0.026 C 
ENDROOT
BRANCH  16  31
HETATM   31  O2  GRA     1     -15.810  24.379  -6.292  1.00  0.00    -0.352 OA
BRANCH  31  32
HETATM   32  C28 GRA     1     -16.164  24.172  -7.673  1.00  0.00     0.293 C 
HETATM   33  C29 GRA     1     -14.892  23.993  -8.523  1.00  0.00     0.211 C 
HETATM   34  C30 GRA     1     -13.987  25.223  -8.341  1.00  0.00     0.183 C 
HETATM   35  C31 GRA     1     -14.786  26.525  -8.148  1.00  0.00     0.189 C 
HETATM   36  C32 GRA     1     -16.239  26.403  -8.633  1.00  0.00     0.253 C 
HETATM   37  O3  GRA     1     -16.952  25.289  -8.082  1.00  0.00    -0.340 OA
BRANCH  33  38
HETATM   38  O8  GRA     1     -14.135  22.831  -8.126  1.00  0.00    -0.346 OA
BRANCH  38  39
HETATM   39  C34 GRA     1     -13.934  21.902  -9.203  1.00  0.00     0.293 C 
HETATM   40  C35 GRA     1     -14.858  20.708  -8.926  1.00  0.00     0.204 C 
HETATM   41  C36 GRA     1     -14.597  19.605  -9.955  1.00  0.00     0.183 C 
HETATM   42  C37 GRA     1     -14.099  20.150 -11.303  1.00  0.00     0.189 C 
HETATM   43  C38 GRA     1     -14.505  21.614 -11.534  1.00  0.00     0.253 C 
HETATM   44  O9  GRA     1     -14.242  22.513 -10.448  1.00  0.00    -0.340 OA
BRANCH  40  45
HETATM   45  O14 GRA     1     -14.665  20.171  -7.607  1.00  0.00    -0.388 OA
HETATM   46  H55 GRA     1     -13.806  19.704  -7.651  1.00  0.00     0.210 HD
ENDBRANCH  40  45
BRANCH  41  47
HETATM   47  O13 GRA     1     -15.793  18.840 -10.146  1.00  0.00    -0.390 OA
HETATM   48  H54 GRA     1     -15.811  18.185  -9.419  1.00  0.00     0.210 HD
ENDBRANCH  41  47
BRANCH  42  49
HETATM   49  O12 GRA     1     -12.661  20.075 -11.326  1.00  0.00    -0.390 OA
HETATM   50  H53 GRA     1     -12.403  19.793 -12.223  1.00  0.00     0.210 HD
ENDBRANCH  42  49
BRANCH  43  51
HETATM   51  C39 GRA     1     -15.950  21.641 -12.037  1.00  0.00     0.172 C 
HETATM   52  O10 GRA     1     -16.505  20.740 -12.648  1.00  0.00    -0.648 OA
BRANCH  51  53
HETATM   53  O11 GRA     1     -16.621  22.766 -11.726  1.00  0.00    -0.774 OA
HETATM   54  H52 GRA     1     -16.327  23.434 -12.382  1.00  0.00     0.167 HD
ENDBRANCH  51  53
ENDBRANCH  43  51
ENDBRANCH  38  39
ENDBRANCH  33  38
BRANCH  34  55
HETATM   55  O7  GRA     1     -13.145  25.340  -9.502  1.00  0.00    -0.390 OA
HETATM   56  H46 GRA     1     -13.723  25.605 -10.243  1.00  0.00     0.210 HD
ENDBRANCH  34  55
BRANCH  35  57
HETATM   57  O6  GRA     1     -14.775  26.881  -6.754  1.00  0.00    -0.390 OA
HETATM   58  H45 GRA     1     -15.672  27.221  -6.546  1.00  0.00     0.210 HD
ENDBRANCH  35  57
BRANCH  36  59
HETATM   59  C33 GRA     1     -16.297  26.405 -10.160  1.00  0.00     0.172 C 
HETATM   60  O4  GRA     1     -15.490  26.916 -10.922  1.00  0.00    -0.648 OA
BRANCH  59  61
HETATM   61  O5  GRA     1     -17.361  25.740 -10.657  1.00  0.00    -0.774 OA
HETATM   62  H44 GRA     1     -17.024  25.345 -11.490  1.00  0.00     0.167 HD
ENDBRANCH  59  61
ENDBRANCH  36  59
ENDBRANCH  31  32
ENDBRANCH  16  31
BRANCH   5  63
HETATM   63  C42 GRA     1     -22.139  17.802   2.924  1.00  0.00     0.148 C 
HETATM   64  O15 GRA     1     -21.404  17.639   3.884  1.00  0.00    -0.649 OA
BRANCH  63  65
HETATM   65  O16 GRA     1     -22.919  16.787   2.502  1.00  0.00    -0.776 OA
HETATM   66  H62 GRA     1     -23.831  17.129   2.613  1.00  0.00     0.167 HD
ENDBRANCH  63  65
ENDBRANCH   5  63
TORSDOF 15
ENDMDL
