MODEL 1
REMARK VINA RESULT:    -7.516      0.000      0.000
REMARK INTER + INTRA:         -11.325
REMARK INTER:                 -10.153
REMARK INTRA:                  -1.172
REMARK UNBOUND:                -1.172
REMARK  10 active torsions:
REMARK  status: ('A' for Active; 'I' for Inactive)
REMARK    1  A    between atoms: C5_5  and  O2_8 
REMARK    2  A    between atoms: C6_6  and  O1_7 
REMARK    3  A    between atoms: C10_14  and  O11_30 
REMARK    4  A    between atoms: C11_15  and  C14_19 
REMARK    5  A    between atoms: C12_16  and  O5_18 
REMARK    6  A    between atoms: C15_20  and  O10_29 
REMARK    7  A    between atoms: C16_21  and  O9_28 
REMARK    8  A    between atoms: C17_22  and  O8_27 
REMARK    9  A    between atoms: C18_23  and  C19_25 
REMARK   10  A    between atoms: C19_25  and  O7_26 
ROOT
HETATM    1  C1  MAN     1     -29.298  15.819   2.872  1.00  0.00     0.057 A 
HETATM    2  C2  MAN     1     -29.972  14.984   1.976  1.00  0.00     0.052 A 
HETATM    3  C3  MAN     1     -29.689  13.618   1.916  1.00  0.00     0.093 A 
HETATM    4  C4  MAN     1     -28.711  13.075   2.750  1.00  0.00     0.077 A 
HETATM    5  C5  MAN     1     -28.031  13.908   3.630  1.00  0.00     0.101 A 
HETATM    6  C6  MAN     1     -28.341  15.264   3.708  1.00  0.00     0.099 A 
HETATM    7  O3  MAN     1     -30.319  12.746   1.062  1.00  0.00    -0.309 OA
HETATM    8  C7  MAN     1     -31.287  13.241   0.222  1.00  0.00     0.095 A 
HETATM    9  C8  MAN     1     -31.672  14.577   0.172  1.00  0.00     0.083 A 
HETATM   10  C9  MAN     1     -31.003  15.521   1.080  1.00  0.00     0.200 A 
HETATM   11  O4  MAN     1     -31.304  16.710   1.073  1.00  0.00    -0.286 OA
HETATM   12  C10 MAN     1     -32.678  14.996  -0.717  1.00  0.00     0.094 A 
HETATM   13  C11 MAN     1     -33.287  14.082  -1.594  1.00  0.00     0.041 A 
HETATM   14  C12 MAN     1     -32.900  12.732  -1.497  1.00  0.00     0.080 A 
HETATM   15  C13 MAN     1     -31.909  12.311  -0.610  1.00  0.00     0.075 A 
ENDROOT
BRANCH  13  16
HETATM   16  C14 MAN     1     -34.358  14.469  -2.602  1.00  0.00     0.192 C 
HETATM   17  C15 MAN     1     -35.790  14.315  -2.014  1.00  0.00     0.183 C 
HETATM   18  C16 MAN     1     -36.455  15.675  -1.763  1.00  0.00     0.181 C 
HETATM   19  C17 MAN     1     -36.419  16.560  -3.026  1.00  0.00     0.180 C 
HETATM   20  C18 MAN     1     -35.221  16.223  -3.937  1.00  0.00     0.177 C 
HETATM   21  O6  MAN     1     -34.115  15.775  -3.155  1.00  0.00    -0.368 OA
BRANCH  17  22
HETATM   22  O10 MAN     1     -36.619  13.588  -2.946  1.00  0.00    -0.390 OA
HETATM   23  H17 MAN     1     -36.649  12.667  -2.623  1.00  0.00     0.210 HD
ENDBRANCH  17  22
BRANCH  18  24
HETATM   24  O9  MAN     1     -35.849  16.344  -0.654  1.00  0.00    -0.390 OA
HETATM   25  H16 MAN     1     -36.390  17.135  -0.443  1.00  0.00     0.210 HD
ENDBRANCH  18  24
BRANCH  19  26
HETATM   26  O8  MAN     1     -37.623  16.418  -3.797  1.00  0.00    -0.390 OA
HETATM   27  H15 MAN     1     -37.640  17.170  -4.425  1.00  0.00     0.210 HD
ENDBRANCH  19  26
BRANCH  20  28
HETATM   28  C19 MAN     1     -34.814  17.446  -4.769  1.00  0.00     0.198 C 
BRANCH  28  29
HETATM   29  O7  MAN     1     -35.797  18.477  -4.719  1.00  0.00    -0.398 OA
HETATM   30  H14 MAN     1     -35.591  19.121  -5.426  1.00  0.00     0.209 HD
ENDBRANCH  28  29
ENDBRANCH  20  28
ENDBRANCH  13  16
BRANCH  12  31
HETATM   31  O11 MAN     1     -33.110  16.301  -0.726  1.00  0.00    -0.359 OA
HETATM   32  H18 MAN     1     -32.676  16.767  -1.481  1.00  0.00     0.217 HD
ENDBRANCH  12  31
BRANCH  14  33
HETATM   33  O5  MAN     1     -33.536  11.808  -2.283  1.00  0.00    -0.360 OA
HETATM   34  H6  MAN     1     -34.493  11.843  -2.107  1.00  0.00     0.217 HD
ENDBRANCH  14  33
BRANCH   6  35
HETATM   35  O1  MAN     1     -27.724  16.063   4.625  1.00  0.00    -0.358 OA
HETATM   36  H3  MAN     1     -27.203  16.715   4.120  1.00  0.00     0.217 HD
ENDBRANCH   6  35
BRANCH   5  37
HETATM   37  O2  MAN     1     -27.033  13.379   4.395  1.00  0.00    -0.358 OA
HETATM   38  H4  MAN     1     -27.441  13.119   5.243  1.00  0.00     0.217 HD
ENDBRANCH   5  37
TORSDOF 10
ENDMDL
