MODEL 1
REMARK VINA RESULT:    -8.206      0.000      0.000
REMARK INTER + INTRA:         -14.837
REMARK INTER:                 -13.003
REMARK INTRA:                  -1.834
REMARK UNBOUND:                -1.834
REMARK  14 active torsions:
REMARK  status: ('A' for Active; 'I' for Inactive)
REMARK    1  A    between atoms: C3_3  and  O14_41 
REMARK    2  A    between atoms: C4_4  and  O13_40 
REMARK    3  A    between atoms: C5_5  and  O12_39 
REMARK    4  A    between atoms: C6_6  and  O2_8 
REMARK    5  A    between atoms: O2_8  and  C7_9 
REMARK    6  A    between atoms: C8_10  and  O11_38 
REMARK    7  A    between atoms: C9_11  and  O10_37 
REMARK    8  A    between atoms: C10_12  and  C27_35 
REMARK    9  A    between atoms: C11_14  and  O4_15 
REMARK   10  A    between atoms: O4_15  and  C12_16 
REMARK   11  A    between atoms: C14_18  and  O8_34 
REMARK   12  A    between atoms: C18_23  and  C21_27 
REMARK   13  A    between atoms: C24_30  and  O7_33 
REMARK   14  A    between atoms: C27_35  and  O9_36 
ROOT
HETATM    1  C7  NAR     1     -22.483   5.892 -30.907  1.00  0.00     0.211 C 
HETATM    2  C8  NAR     1     -22.739   7.397 -31.101  1.00  0.00     0.183 C 
HETATM    3  C9  NAR     1     -21.476   8.146 -31.575  1.00  0.00     0.180 C 
HETATM    4  C10 NAR     1     -20.199   7.396 -31.155  1.00  0.00     0.179 C 
HETATM    5  O3  NAR     1     -20.393   6.798 -29.876  1.00  0.00    -0.348 OA
HETATM    6  C11 NAR     1     -21.283   5.669 -29.935  1.00  0.00     0.298 C 
ENDROOT
BRANCH   6   7
HETATM    7  O4  NAR     1     -21.842   5.452 -28.630  1.00  0.00    -0.318 OA
BRANCH   7   8
HETATM    8  C12 NAR     1     -21.565   4.265 -28.013  1.00  0.00     0.077 A 
HETATM    9  C13 NAR     1     -20.463   4.011 -27.194  1.00  0.00     0.074 A 
HETATM   10  C14 NAR     1     -20.308   2.754 -26.609  1.00  0.00     0.085 A 
HETATM   11  C15 NAR     1     -21.247   1.746 -26.838  1.00  0.00     0.076 A 
HETATM   12  C16 NAR     1     -21.141   0.425 -26.193  1.00  0.00     0.167 C 
HETATM   13  C19 NAR     1     -22.343   1.996 -27.662  1.00  0.00     0.089 A 
HETATM   14  O5  NAR     1     -20.180   0.173 -25.468  1.00  0.00    -0.292 OA
HETATM   15  C17 NAR     1     -22.276  -0.533 -26.412  1.00  0.00     0.121 C 
HETATM   16  C18 NAR     1     -22.839  -0.288 -27.806  1.00  0.00     0.169 C 
HETATM   17  O6  NAR     1     -23.309   1.064 -27.939  1.00  0.00    -0.340 OA
HETATM   18  C20 NAR     1     -22.512   3.258 -28.228  1.00  0.00     0.074 A 
BRANCH  10  19
HETATM   19  O8  NAR     1     -19.211   2.581 -25.807  1.00  0.00    -0.360 OA
HETATM   20  H24 NAR     1     -18.535   2.074 -26.314  1.00  0.00     0.217 HD
ENDBRANCH  10  19
BRANCH  16  21
HETATM   21  C21 NAR     1     -23.987  -1.240 -28.088  1.00  0.00    -0.028 A 
HETATM   22  C22 NAR     1     -24.320  -2.272 -27.193  1.00  0.00     0.012 A 
HETATM   23  C23 NAR     1     -25.364  -3.155 -27.478  1.00  0.00     0.037 A 
HETATM   24  C24 NAR     1     -26.078  -3.011 -28.663  1.00  0.00     0.065 A 
HETATM   25  C25 NAR     1     -25.762  -2.003 -29.565  1.00  0.00     0.037 A 
HETATM   26  C26 NAR     1     -24.719  -1.120 -29.280  1.00  0.00     0.012 A 
BRANCH  24  27
HETATM   27  O7  NAR     1     -27.103  -3.850 -28.982  1.00  0.00    -0.361 OA
HETATM   28  H23 NAR     1     -26.886  -4.741 -28.660  1.00  0.00     0.217 HD
ENDBRANCH  24  27
ENDBRANCH  16  21
ENDBRANCH   7   8
ENDBRANCH   6   7
BRANCH   1  29
HETATM   29  O2  NAR     1     -22.207   5.318 -32.199  1.00  0.00    -0.346 OA
BRANCH  29  30
HETATM   30  C6  NAR     1     -23.175   4.337 -32.583  1.00  0.00     0.292 C 
HETATM   31  C5  NAR     1     -23.982   4.924 -33.762  1.00  0.00     0.204 C 
HETATM   32  C4  NAR     1     -24.692   3.818 -34.555  1.00  0.00     0.183 C 
HETATM   33  C3  NAR     1     -24.873   2.559 -33.704  1.00  0.00     0.178 C 
HETATM   34  C2  NAR     1     -23.496   2.061 -33.220  1.00  0.00     0.152 C 
HETATM   35  C1  NAR     1     -23.614   1.197 -31.968  1.00  0.00     0.042 C 
HETATM   36  O1  NAR     1     -22.555   3.121 -32.973  1.00  0.00    -0.351 OA
BRANCH  31  37
HETATM   37  O12 NAR     1     -24.956   5.870 -33.277  1.00  0.00    -0.388 OA
HETATM   38  H30 NAR     1     -24.598   6.207 -32.431  1.00  0.00     0.210 HD
ENDBRANCH  31  37
BRANCH  32  39
HETATM   39  O13 NAR     1     -25.978   4.255 -35.024  1.00  0.00    -0.390 OA
HETATM   40  H31 NAR     1     -25.998   4.012 -35.976  1.00  0.00     0.210 HD
ENDBRANCH  32  39
BRANCH  33  41
HETATM   41  O14 NAR     1     -25.535   1.544 -34.462  1.00  0.00    -0.390 OA
HETATM   42  H32 NAR     1     -25.227   1.672 -35.384  1.00  0.00     0.210 HD
ENDBRANCH  33  41
ENDBRANCH  29  30
ENDBRANCH   1  29
BRANCH   2  43
HETATM   43  O11 NAR     1     -23.229   7.973 -29.878  1.00  0.00    -0.390 OA
HETATM   44  H29 NAR     1     -22.664   7.656 -29.147  1.00  0.00     0.210 HD
ENDBRANCH   2  43
BRANCH   4  45
HETATM   45  C27 NAR     1     -19.002   8.352 -31.095  1.00  0.00     0.198 C 
BRANCH  45  46
HETATM   46  O9  NAR     1     -17.917   7.839 -31.863  1.00  0.00    -0.398 OA
HETATM   47  H27 NAR     1     -18.183   7.910 -32.799  1.00  0.00     0.209 HD
ENDBRANCH  45  46
ENDBRANCH   4  45
BRANCH   3  48
HETATM   48  O10 NAR     1     -21.489   8.318 -32.997  1.00  0.00    -0.390 OA
HETATM   49  H28 NAR     1     -21.512   9.287 -33.148  1.00  0.00     0.210 HD
ENDBRANCH   3  48
TORSDOF 14
ENDMDL
