MODEL 1
REMARK VINA RESULT:    -6.970      0.000      0.000
REMARK INTER + INTRA:          -8.734
REMARK INTER:                  -8.396
REMARK INTRA:                  -0.338
REMARK UNBOUND:                -0.338
REMARK  5 active torsions:
REMARK  status: ('A' for Active; 'I' for Inactive)
REMARK    1  A    between atoms: C3_3  and  O3_17 
REMARK    2  A    between atoms: C6_6  and  C7_7 
REMARK    3  A    between atoms: C8_8  and  C9_9 
REMARK    4  A    between atoms: C11_11  and  O2_16 
REMARK    5  A    between atoms: C13_13  and  O1_15 
ROOT
HETATM    1  C9  RES     1     -24.295   9.141 -17.418  1.00  0.00    -0.031 A 
HETATM    2  C10 RES     1     -23.973   7.778 -17.480  1.00  0.00     0.048 A 
HETATM    3  C11 RES     1     -23.501   7.223 -18.667  1.00  0.00     0.069 A 
HETATM    4  C12 RES     1     -23.332   8.006 -19.803  1.00  0.00     0.073 A 
HETATM    5  C13 RES     1     -23.635   9.360 -19.735  1.00  0.00     0.069 A 
HETATM    6  C14 RES     1     -24.108   9.935 -18.557  1.00  0.00     0.048 A 
ENDROOT
BRANCH   1   7
HETATM    7  C8  RES     1     -24.761   9.700 -16.140  1.00  0.00     0.012 C 
HETATM    8  C7  RES     1     -25.272   8.958 -15.144  1.00  0.00     0.012 C 
BRANCH   8   9
HETATM    9  C6  RES     1     -25.736   9.515 -13.865  1.00  0.00    -0.036 A 
HETATM   10  C1  RES     1     -26.957  10.196 -13.746  1.00  0.00     0.014 A 
HETATM   11  C2  RES     1     -27.353  10.739 -12.520  1.00  0.00     0.037 A 
HETATM   12  C3  RES     1     -26.521  10.611 -11.413  1.00  0.00     0.065 A 
HETATM   13  C4  RES     1     -25.302   9.954 -11.515  1.00  0.00     0.037 A 
HETATM   14  C5  RES     1     -24.906   9.412 -12.741  1.00  0.00     0.014 A 
BRANCH  12  15
HETATM   15  O3  RES     1     -26.866  11.125 -10.200  1.00  0.00    -0.361 OA
HETATM   16  H12 RES     1     -27.828  11.266 -10.185  1.00  0.00     0.217 HD
ENDBRANCH  12  15
ENDBRANCH   8   9
ENDBRANCH   1   7
BRANCH   3  17
HETATM   17  O2  RES     1     -23.213   5.890 -18.673  1.00  0.00    -0.361 OA
HETATM   18  H11 RES     1     -23.147   5.594 -19.597  1.00  0.00     0.217 HD
ENDBRANCH   3  17
BRANCH   5  19
HETATM   19  O1  RES     1     -23.445  10.106 -20.863  1.00  0.00    -0.361 OA
HETATM   20  H10 RES     1     -23.323  11.035 -20.605  1.00  0.00     0.217 HD
ENDBRANCH   5  19
TORSDOF 5
ENDMDL
