MODEL 1
REMARK VINA RESULT:    -6.680      0.000      0.000
REMARK INTER + INTRA:          -8.384
REMARK INTER:                  -8.047
REMARK INTRA:                  -0.337
REMARK UNBOUND:                -0.337
REMARK  5 active torsions:
REMARK  status: ('A' for Active; 'I' for Inactive)
REMARK    1  A    between atoms: O1_2  and  C2_3 
REMARK    2  A    between atoms: C4_5  and  O6_22 
REMARK    3  A    between atoms: C8_10  and  C11_15 
REMARK    4  A    between atoms: C9_11  and  O4_14 
REMARK    5  A    between atoms: C14_18  and  O5_21 
ROOT
HETATM    1  C2  RHA     1     -15.692  23.906  -9.738  1.00  0.00     0.073 A 
HETATM    2  C3  RHA     1     -15.521  23.051  -8.647  1.00  0.00     0.074 A 
HETATM    3  C4  RHA     1     -15.306  21.688  -8.859  1.00  0.00     0.085 A 
HETATM    4  C5  RHA     1     -15.260  21.175 -10.156  1.00  0.00     0.084 A 
HETATM    5  C6  RHA     1     -15.428  22.023 -11.244  1.00  0.00     0.096 A 
HETATM    6  C7  RHA     1     -15.643  23.385 -11.036  1.00  0.00     0.075 A 
HETATM    7  O2  RHA     1     -15.392  21.587 -12.544  1.00  0.00    -0.306 OA
HETATM    8  C8  RHA     1     -15.193  20.234 -12.794  1.00  0.00     0.123 A 
HETATM    9  C9  RHA     1     -15.010  19.311 -11.831  1.00  0.00     0.152 A 
HETATM   10  C10 RHA     1     -15.035  19.752 -10.417  1.00  0.00     0.223 A 
HETATM   11  O3  RHA     1     -14.870  18.943  -9.507  1.00  0.00    -0.284 OA
ENDROOT
BRANCH   8  12
HETATM   12  C11 RHA     1     -15.177  19.914 -14.238  1.00  0.00     0.001 A 
HETATM   13  C12 RHA     1     -16.384  19.654 -14.909  1.00  0.00     0.017 A 
HETATM   14  C13 RHA     1     -16.393  19.323 -16.268  1.00  0.00     0.037 A 
HETATM   15  C14 RHA     1     -15.191  19.245 -16.960  1.00  0.00     0.065 A 
HETATM   16  C15 RHA     1     -13.985  19.488 -16.316  1.00  0.00     0.037 A 
HETATM   17  C16 RHA     1     -13.977  19.818 -14.959  1.00  0.00     0.017 A 
BRANCH  15  18
HETATM   18  O5  RHA     1     -15.153  18.924 -18.284  1.00  0.00    -0.361 OA
HETATM   19  H11 RHA     1     -15.984  19.211 -18.697  1.00  0.00     0.217 HD
ENDBRANCH  15  18
ENDBRANCH   8  12
BRANCH   9  20
HETATM   20  O4  RHA     1     -14.782  17.969 -12.068  1.00  0.00    -0.355 OA
HETATM   21  H6  RHA     1     -15.615  17.626 -12.454  1.00  0.00     0.218 HD
ENDBRANCH   9  20
BRANCH   3  22
HETATM   22  O6  RHA     1     -15.147  20.911  -7.743  1.00  0.00    -0.360 OA
HETATM   23  H12 RHA     1     -14.277  21.123  -7.336  1.00  0.00     0.217 HD
ENDBRANCH   3  22
BRANCH   1  24
HETATM   24  O1  RHA     1     -15.908  25.255  -9.674  1.00  0.00    -0.356 OA
HETATM   25  C1  RHA     1     -17.028  25.692  -8.912  1.00  0.00     0.210 C 
ENDBRANCH   1  24
TORSDOF 5
ENDMDL
