MODEL 1
REMARK VINA RESULT:    -7.598      0.000      0.000
REMARK INTER + INTRA:         -15.054
REMARK INTER:                 -12.485
REMARK INTRA:                  -2.570
REMARK UNBOUND:                -2.570
REMARK  16 active torsions:
REMARK  status: ('A' for Active; 'I' for Inactive)
REMARK    1  A    between atoms: C3_3  and  O16_43 
REMARK    2  A    between atoms: C4_4  and  O15_42 
REMARK    3  A    between atoms: C5_5  and  O14_41 
REMARK    4  A    between atoms: C6_6  and  O2_8 
REMARK    5  A    between atoms: O2_8  and  C7_9 
REMARK    6  A    between atoms: C7_9  and  C8_10 
REMARK    7  A    between atoms: C9_11  and  O13_40 
REMARK    8  A    between atoms: C10_12  and  O12_39 
REMARK    9  A    between atoms: C11_13  and  O11_38 
REMARK   10  A    between atoms: C12_14  and  O4_16 
REMARK   11  A    between atoms: O4_16  and  C13_17 
REMARK   12  A    between atoms: C14_18  and  C22_30 
REMARK   13  A    between atoms: C17_22  and  O8_29 
REMARK   14  A    between atoms: C19_24  and  O7_28 
REMARK   15  A    between atoms: C24_32  and  O10_37 
REMARK   16  A    between atoms: C25_33  and  O9_36 
ROOT
HETATM    1  C8  RUT     1     -12.663  22.386 -13.475  1.00  0.00     0.180 C 
HETATM    2  C9  RUT     1     -12.238  21.006 -12.947  1.00  0.00     0.180 C 
HETATM    3  C10 RUT     1     -11.112  21.181 -11.923  1.00  0.00     0.183 C 
HETATM    4  C11 RUT     1     -11.317  22.387 -10.998  1.00  0.00     0.205 C 
HETATM    5  C12 RUT     1     -12.740  22.975 -11.115  1.00  0.00     0.298 C 
HETATM    6  O3  RUT     1     -13.144  23.272 -12.459  1.00  0.00    -0.348 OA
ENDROOT
BRANCH   5   7
HETATM    7  O4  RUT     1     -13.680  22.071 -10.521  1.00  0.00    -0.311 OA
BRANCH   7   8
HETATM    8  C13 RUT     1     -14.465  22.674  -9.555  1.00  0.00     0.157 A 
HETATM    9  C14 RUT     1     -14.292  22.454  -8.238  1.00  0.00     0.124 A 
HETATM   10  O5  RUT     1     -15.049  23.030  -7.232  1.00  0.00    -0.306 OA
HETATM   11  C15 RUT     1     -16.005  23.950  -7.576  1.00  0.00     0.096 A 
HETATM   12  C16 RUT     1     -16.722  24.536  -6.534  1.00  0.00     0.075 A 
HETATM   13  C20 RUT     1     -16.274  24.305  -8.895  1.00  0.00     0.084 A 
HETATM   14  C17 RUT     1     -17.706  25.477  -6.823  1.00  0.00     0.071 A 
HETATM   15  C18 RUT     1     -17.986  25.843  -8.137  1.00  0.00     0.074 A 
HETATM   16  C19 RUT     1     -17.265  25.253  -9.173  1.00  0.00     0.085 A 
HETATM   17  C21 RUT     1     -15.504  23.657  -9.963  1.00  0.00     0.223 A 
HETATM   18  O6  RUT     1     -15.734  23.922 -11.141  1.00  0.00    -0.284 OA
BRANCH   9  19
HETATM   19  C22 RUT     1     -13.274  21.521  -7.726  1.00  0.00     0.004 A 
HETATM   20  C23 RUT     1     -13.620  20.184  -7.473  1.00  0.00     0.053 A 
HETATM   21  C24 RUT     1     -12.660  19.312  -6.969  1.00  0.00     0.099 A 
HETATM   22  C25 RUT     1     -11.368  19.760  -6.707  1.00  0.00     0.098 A 
HETATM   23  C26 RUT     1     -11.010  21.077  -6.951  1.00  0.00     0.040 A 
HETATM   24  C27 RUT     1     -11.965  21.959  -7.463  1.00  0.00     0.017 A 
BRANCH  21  25
HETATM   25  O10 RUT     1     -12.941  17.998  -6.712  1.00  0.00    -0.358 OA
HETATM   26  H24 RUT     1     -12.110  17.544  -6.493  1.00  0.00     0.217 HD
ENDBRANCH  21  25
BRANCH  22  27
HETATM   27  O9  RUT     1     -10.436  18.901  -6.204  1.00  0.00    -0.358 OA
HETATM   28  H23 RUT     1      -9.576  19.317  -6.414  1.00  0.00     0.217 HD
ENDBRANCH  22  27
ENDBRANCH   9  19
BRANCH  14  29
HETATM   29  O8  RUT     1     -18.384  26.026  -5.775  1.00  0.00    -0.361 OA
HETATM   30  H19 RUT     1     -19.142  26.530  -6.118  1.00  0.00     0.217 HD
ENDBRANCH  14  29
BRANCH  16  31
HETATM   31  O7  RUT     1     -17.584  25.650 -10.444  1.00  0.00    -0.360 OA
HETATM   32  H18 RUT     1     -18.526  25.935 -10.453  1.00  0.00     0.217 HD
ENDBRANCH  16  31
ENDBRANCH   7   8
ENDBRANCH   5   7
BRANCH   4  33
HETATM   33  O11 RUT     1     -10.349  23.396 -11.347  1.00  0.00    -0.388 OA
HETATM   34  H25 RUT     1      -9.471  22.979 -11.285  1.00  0.00     0.210 HD
ENDBRANCH   4  33
BRANCH   3  35
HETATM   35  O12 RUT     1     -10.999  19.968 -11.159  1.00  0.00    -0.390 OA
HETATM   36  H26 RUT     1     -10.567  20.234 -10.324  1.00  0.00     0.210 HD
ENDBRANCH   3  35
BRANCH   1  37
HETATM   37  C7  RUT     1     -13.757  22.272 -14.549  1.00  0.00     0.205 C 
BRANCH  37  38
HETATM   38  O2  RUT     1     -14.452  21.026 -14.417  1.00  0.00    -0.356 OA
BRANCH  38  39
HETATM   39  C6  RUT     1     -15.743  21.211 -13.821  1.00  0.00     0.291 C 
HETATM   40  C5  RUT     1     -16.802  20.438 -14.633  1.00  0.00     0.204 C 
HETATM   41  C4  RUT     1     -16.659  18.934 -14.409  1.00  0.00     0.183 C 
HETATM   42  C3  RUT     1     -16.639  18.602 -12.915  1.00  0.00     0.178 C 
HETATM   43  C2  RUT     1     -15.531  19.419 -12.233  1.00  0.00     0.152 C 
HETATM   44  C1  RUT     1     -15.506  19.182 -10.727  1.00  0.00     0.042 C 
HETATM   45  O1  RUT     1     -15.721  20.821 -12.444  1.00  0.00    -0.351 OA
BRANCH  40  46
HETATM   46  O14 RUT     1     -18.133  20.838 -14.259  1.00  0.00    -0.388 OA
HETATM   47  H28 RUT     1     -18.699  20.085 -14.525  1.00  0.00     0.210 HD
ENDBRANCH  40  46
BRANCH  41  48
HETATM   48  O15 RUT     1     -17.770  18.260 -15.029  1.00  0.00    -0.390 OA
HETATM   49  H29 RUT     1     -18.391  18.978 -15.268  1.00  0.00     0.210 HD
ENDBRANCH  41  48
BRANCH  42  50
HETATM   50  O16 RUT     1     -16.439  17.189 -12.788  1.00  0.00    -0.390 OA
HETATM   51  H30 RUT     1     -17.062  16.752 -13.396  1.00  0.00     0.210 HD
ENDBRANCH  42  50
ENDBRANCH  38  39
ENDBRANCH  37  38
ENDBRANCH   1  37
BRANCH   2  52
HETATM   52  O13 RUT     1     -11.749  20.121 -13.967  1.00  0.00    -0.390 OA
HETATM   53  H27 RUT     1     -11.898  19.208 -13.649  1.00  0.00     0.210 HD
ENDBRANCH   2  52
TORSDOF 16
ENDMDL
