MODEL 1
REMARK VINA RESULT:    -7.412      0.000      0.000
REMARK INTER + INTRA:         -11.113
REMARK INTER:                 -10.229
REMARK INTRA:                  -0.885
REMARK UNBOUND:                -0.885
REMARK  9 active torsions:
REMARK  status: ('A' for Active; 'I' for Inactive)
REMARK    1  A    between atoms: O1_2  and  C2_3 
REMARK    2  A    between atoms: C3_4  and  O10_35 
REMARK    3  A    between atoms: C6_7  and  C8_9 
REMARK    4  A    between atoms: C9_10  and  C25_33 
REMARK    5  A    between atoms: C13_16  and  C16_19 
REMARK    6  A    between atoms: C17_20  and  O8_32 
REMARK    7  A    between atoms: C20_24  and  O7_31 
REMARK    8  A    between atoms: C22_26  and  O6_30 
REMARK    9  A    between atoms: C25_33  and  O9_34 
ROOT
HETATM    1  C8  SIL     1     -14.755  21.025 -13.120  1.00  0.00     0.193 C 
HETATM    2  C9  SIL     1     -14.147  20.006 -12.139  1.00  0.00     0.186 C 
HETATM    3  O2  SIL     1     -13.345  20.691 -11.148  1.00  0.00    -0.338 OA
HETATM    4  C10 SIL     1     -13.987  21.789 -10.642  1.00  0.00     0.102 A 
HETATM    5  C11 SIL     1     -15.098  22.375 -11.250  1.00  0.00     0.103 A 
HETATM    6  O3  SIL     1     -15.642  21.918 -12.420  1.00  0.00    -0.336 OA
HETATM    7  C12 SIL     1     -15.721  23.475 -10.660  1.00  0.00     0.049 A 
HETATM    8  C13 SIL     1     -15.217  24.029  -9.471  1.00  0.00    -0.023 A 
HETATM    9  C14 SIL     1     -14.087  23.439  -8.881  1.00  0.00     0.013 A 
HETATM   10  C15 SIL     1     -13.473  22.329  -9.466  1.00  0.00     0.040 A 
ENDROOT
BRANCH   8  11
HETATM   11  C16 SIL     1     -15.887  25.222  -8.802  1.00  0.00     0.198 C 
HETATM   12  C17 SIL     1     -14.889  26.365  -8.579  1.00  0.00     0.227 C 
HETATM   13  C18 SIL     1     -15.591  27.479  -7.825  1.00  0.00     0.196 C 
HETATM   14  O4  SIL     1     -15.276  28.663  -7.950  1.00  0.00    -0.289 OA
HETATM   15  C19 SIL     1     -16.658  27.095  -6.890  1.00  0.00     0.079 A 
HETATM   16  C20 SIL     1     -17.289  28.040  -6.072  1.00  0.00     0.085 A 
HETATM   17  C24 SIL     1     -17.018  25.750  -6.804  1.00  0.00     0.089 A 
HETATM   18  C21 SIL     1     -18.266  27.645  -5.162  1.00  0.00     0.074 A 
HETATM   19  C22 SIL     1     -18.599  26.297  -5.069  1.00  0.00     0.071 A 
HETATM   20  C23 SIL     1     -17.981  25.348  -5.879  1.00  0.00     0.074 A 
HETATM   21  O5  SIL     1     -16.455  24.762  -7.562  1.00  0.00    -0.337 OA
BRANCH  12  22
HETATM   22  O8  SIL     1     -14.414  26.902  -9.816  1.00  0.00    -0.385 OA
HETATM   23  H18 SIL     1     -14.184  26.135 -10.379  1.00  0.00     0.210 HD
ENDBRANCH  12  22
BRANCH  16  24
HETATM   24  O7  SIL     1     -16.992  29.377  -6.109  1.00  0.00    -0.360 OA
HETATM   25  H17 SIL     1     -17.708  29.868  -5.649  1.00  0.00     0.217 HD
ENDBRANCH  16  24
BRANCH  19  26
HETATM   26  O6  SIL     1     -19.541  25.859  -4.186  1.00  0.00    -0.361 OA
HETATM   27  H16 SIL     1     -20.299  26.469  -4.204  1.00  0.00     0.217 HD
ENDBRANCH  19  26
ENDBRANCH   8  11
BRANCH   1  28
HETATM   28  C6  SIL     1     -15.564  20.388 -14.235  1.00  0.00    -0.024 A 
HETATM   29  C5  SIL     1     -16.642  19.537 -13.949  1.00  0.00     0.013 A 
HETATM   30  C4  SIL     1     -17.367  18.940 -14.980  1.00  0.00     0.040 A 
HETATM   31  C3  SIL     1     -17.020  19.197 -16.305  1.00  0.00     0.099 A 
HETATM   32  C2  SIL     1     -15.955  20.050 -16.622  1.00  0.00     0.101 A 
HETATM   33  C7  SIL     1     -15.233  20.642 -15.580  1.00  0.00     0.049 A 
BRANCH  31  34
HETATM   34  O10 SIL     1     -17.731  18.610 -17.319  1.00  0.00    -0.358 OA
HETATM   35  H22 SIL     1     -18.671  18.825 -17.213  1.00  0.00     0.217 HD
ENDBRANCH  31  34
BRANCH  32  36
HETATM   36  O1  SIL     1     -15.703  20.233 -17.957  1.00  0.00    -0.353 OA
HETATM   37  C1  SIL     1     -15.509  21.562 -18.414  1.00  0.00     0.210 C 
ENDBRANCH  32  36
ENDBRANCH   1  28
BRANCH   2  38
HETATM   38  C25 SIL     1     -13.209  19.011 -12.830  1.00  0.00     0.199 C 
BRANCH  38  39
HETATM   39  O9  SIL     1     -12.158  19.712 -13.502  1.00  0.00    -0.398 OA
HETATM   40  H21 SIL     1     -11.619  20.130 -12.803  1.00  0.00     0.209 HD
ENDBRANCH  38  39
ENDBRANCH   2  38
TORSDOF 9
ENDMDL
