MODEL 1
REMARK VINA RESULT:    -7.101      0.000      0.000
REMARK INTER + INTRA:         -11.308
REMARK INTER:                  -9.799
REMARK INTRA:                  -1.509
REMARK UNBOUND:                -1.509
REMARK  10 active torsions:
REMARK  status: ('A' for Active; 'I' for Inactive)
REMARK    1  A    between atoms: C3_3  and  O10_31 
REMARK    2  A    between atoms: C6_6  and  C7_7 
REMARK    3  A    between atoms: C12_14  and  C16_20 
REMARK    4  A    between atoms: C13_15  and  O4_19 
REMARK    5  A    between atoms: C15_17  and  O3_18 
REMARK    6  A    between atoms: C17_21  and  O9_30 
REMARK    7  A    between atoms: C18_22  and  O8_29 
REMARK    8  A    between atoms: C19_23  and  O7_28 
REMARK    9  A    between atoms: C20_24  and  C21_26 
REMARK   10  A    between atoms: C21_26  and  O6_27 
ROOT
HETATM    1  C7  VIT     1     -22.805   3.113 -30.639  1.00  0.00     0.090 A 
HETATM    2  C8  VIT     1     -22.727   2.226 -29.638  1.00  0.00     0.094 A 
HETATM    3  C9  VIT     1     -21.813   2.498 -28.523  1.00  0.00     0.190 A 
HETATM    4  O1  VIT     1     -21.698   1.715 -27.586  1.00  0.00    -0.287 OA
HETATM    5  C10 VIT     1     -21.035   3.742 -28.578  1.00  0.00     0.082 A 
HETATM    6  C11 VIT     1     -21.217   4.601 -29.664  1.00  0.00     0.104 A 
HETATM    7  O2  VIT     1     -22.093   4.299 -30.682  1.00  0.00    -0.308 OA
HETATM    8  C12 VIT     1     -20.494   5.810 -29.753  1.00  0.00     0.041 A 
HETATM    9  C13 VIT     1     -19.578   6.102 -28.726  1.00  0.00     0.080 A 
HETATM   10  C14 VIT     1     -19.392   5.243 -27.642  1.00  0.00     0.074 A 
HETATM   11  C15 VIT     1     -20.125   4.065 -27.568  1.00  0.00     0.085 A 
ENDROOT
BRANCH   8  12
HETATM   12  C16 VIT     1     -20.684   6.775 -30.914  1.00  0.00     0.192 C 
HETATM   13  C17 VIT     1     -21.742   7.876 -30.620  1.00  0.00     0.183 C 
HETATM   14  C18 VIT     1     -21.424   9.186 -31.380  1.00  0.00     0.181 C 
HETATM   15  C19 VIT     1     -20.744   8.863 -32.717  1.00  0.00     0.180 C 
HETATM   16  C20 VIT     1     -19.437   8.058 -32.492  1.00  0.00     0.177 C 
HETATM   17  O5  VIT     1     -19.413   7.358 -31.234  1.00  0.00    -0.368 OA
BRANCH  13  18
HETATM   18  O9  VIT     1     -23.047   7.410 -31.010  1.00  0.00    -0.390 OA
HETATM   19  H19 VIT     1     -23.407   6.932 -30.233  1.00  0.00     0.210 HD
ENDBRANCH  13  18
BRANCH  14  20
HETATM   20  O8  VIT     1     -20.597  10.067 -30.620  1.00  0.00    -0.390 OA
HETATM   21  H18 VIT     1     -20.131   9.533 -29.951  1.00  0.00     0.210 HD
ENDBRANCH  14  20
BRANCH  15  22
HETATM   22  O7  VIT     1     -21.670   8.078 -33.500  1.00  0.00    -0.390 OA
HETATM   23  H17 VIT     1     -21.716   7.205 -33.068  1.00  0.00     0.210 HD
ENDBRANCH  15  22
BRANCH  16  24
HETATM   24  C21 VIT     1     -18.200   8.962 -32.539  1.00  0.00     0.198 C 
BRANCH  24  25
HETATM   25  O6  VIT     1     -17.672   9.155 -31.229  1.00  0.00    -0.398 OA
HETATM   26  H16 VIT     1     -18.346   9.650 -30.730  1.00  0.00     0.209 HD
ENDBRANCH  24  25
ENDBRANCH  16  24
ENDBRANCH   8  12
BRANCH   9  27
HETATM   27  O4  VIT     1     -18.851   7.259 -28.788  1.00  0.00    -0.360 OA
HETATM   28  H8  VIT     1     -18.683   7.579 -27.886  1.00  0.00     0.217 HD
ENDBRANCH   9  27
BRANCH  11  29
HETATM   29  O3  VIT     1     -19.898   3.268 -26.479  1.00  0.00    -0.360 OA
HETATM   30  H7  VIT     1     -18.974   3.417 -26.176  1.00  0.00     0.217 HD
ENDBRANCH  11  29
BRANCH   1  31
HETATM   31  C6  VIT     1     -23.698   2.904 -31.796  1.00  0.00    -0.002 A 
HETATM   32  C1  VIT     1     -24.057   1.617 -32.231  1.00  0.00     0.017 A 
HETATM   33  C2  VIT     1     -24.890   1.441 -33.341  1.00  0.00     0.037 A 
HETATM   34  C3  VIT     1     -25.361   2.555 -34.027  1.00  0.00     0.065 A 
HETATM   35  C4  VIT     1     -25.012   3.835 -33.623  1.00  0.00     0.037 A 
HETATM   36  C5  VIT     1     -24.182   4.009 -32.512  1.00  0.00     0.017 A 
BRANCH  34  37
HETATM   37  O10 VIT     1     -26.172   2.429 -35.115  1.00  0.00    -0.361 OA
HETATM   38  H20 VIT     1     -26.210   1.494 -35.371  1.00  0.00     0.217 HD
ENDBRANCH  34  37
ENDBRANCH   1  31
TORSDOF 10
ENDMDL
