MODEL 1
REMARK VINA RESULT:      -6.8      0.000      0.000
REMARK  7 active torsions:
REMARK  status: ('A' for Active; 'I' for Inactive)
REMARK    1  A    between atoms: C2_2  and  C3_3 
REMARK    2  A    between atoms: C3_3  and  C4_4 
REMARK    3  A    between atoms: C7_10  and  C9_14 
REMARK    4  A    between atoms: C10_15  and  O4_30 
REMARK    5  A    between atoms: C13_18  and  S1_20 
REMARK    6  A    between atoms: S1_20  and  N5_23 
REMARK    7  A    between atoms: O4_30  and  C20_31 
ROOT
HETATM    1  C9  VIA     1     -53.504  -7.678  -9.359  1.00  0.00     0.045 A 
HETATM    2  C10 VIA     1     -54.011  -6.511  -9.979  1.00  0.00     0.082 A 
HETATM    3  C11 VIA     1     -53.112  -5.573 -10.507  1.00  0.00     0.039 A 
HETATM    4  C12 VIA     1     -51.731  -5.772 -10.427  1.00  0.00     0.028 A 
HETATM    5  C13 VIA     1     -51.236  -6.917  -9.808  1.00  0.00     0.080 A 
HETATM    6  C14 VIA     1     -52.112  -7.877  -9.299  1.00  0.00     0.043 A 
ENDROOT
BRANCH   1   7
HETATM    7  C7  VIA     1     -54.358  -8.746  -8.724  1.00  0.00     0.144 A 
HETATM    8  N3  VIA     1     -54.383  -8.857  -7.423  1.00  0.00    -0.226 NA
HETATM    9  C6  VIA     1     -55.210  -9.876  -6.950  1.00  0.00     0.119 A 
HETATM   10  C4  VIA     1     -55.480 -10.276  -5.632  1.00  0.00     0.086 A 
HETATM   11  C5  VIA     1     -55.940 -10.690  -7.761  1.00  0.00     0.151 A 
HETATM   12  N1  VIA     1     -56.348 -11.307  -5.620  1.00  0.00    -0.174 NA
HETATM   13  N2  VIA     1     -56.608 -11.534  -6.932  1.00  0.00    -0.266 N 
HETATM   14  C22 VIA     1     -57.518 -12.587  -7.314  1.00  0.00     0.180 C 
HETATM   15  C8  VIA     1     -55.923 -10.577  -9.173  1.00  0.00     0.278 A 
HETATM   16  N4  VIA     1     -55.082  -9.566  -9.582  1.00  0.00    -0.305 N 
HETATM   17  O1  VIA     1     -56.565 -11.267  -9.957  1.00  0.00    -0.265 OA
HETATM   18  H8  VIA     1     -55.036  -9.411 -10.580  1.00  0.00     0.170 HD
BRANCH  10  19
HETATM   19  C3  VIA     1     -54.935  -9.718  -4.363  1.00  0.00     0.063 C 
BRANCH  19  20
HETATM   20  C2  VIA     1     -55.434  -8.306  -4.049  1.00  0.00     0.002 C 
HETATM   21  C1  VIA     1     -55.002  -7.811  -2.676  1.00  0.00     0.005 C 
ENDBRANCH  19  20
ENDBRANCH  10  19
ENDBRANCH   1   7
BRANCH   2  22
HETATM   22  O4  VIA     1     -55.374  -6.359 -10.019  1.00  0.00    -0.351 OA
BRANCH  22  23
HETATM   23  C20 VIA     1     -56.007  -5.333  -9.252  1.00  0.00     0.171 C 
HETATM   24  C21 VIA     1     -57.427  -5.729  -8.889  1.00  0.00     0.034 C 
ENDBRANCH  22  23
ENDBRANCH   2  22
BRANCH   5  25
HETATM   25  S1  VIA     1     -49.480  -7.200  -9.731  1.00  0.00     0.261 S 
HETATM   26  O2  VIA     1     -49.208  -8.429 -10.444  1.00  0.00    -0.200 OA
HETATM   27  O3  VIA     1     -48.831  -5.961 -10.110  1.00  0.00    -0.200 OA
BRANCH  25  28
HETATM   28  N5  VIA     1     -49.187  -7.459  -8.085  1.00  0.00    -0.303 N 
HETATM   29  C15 VIA     1     -49.781  -6.482  -7.131  1.00  0.00     0.165 C 
HETATM   30  C16 VIA     1     -49.141  -6.646  -5.737  1.00  0.00     0.292 C 
HETATM   31  N6  VIA     1     -49.282  -8.024  -5.218  1.00  0.00     0.087 N 
HETATM   32  C17 VIA     1     -48.678  -8.973  -6.180  1.00  0.00     0.292 C 
HETATM   33  C19 VIA     1     -48.643  -8.147  -3.909  1.00  0.00     0.310 C 
HETATM   34  C18 VIA     1     -49.308  -8.857  -7.583  1.00  0.00     0.165 C 
ENDBRANCH  25  28
ENDBRANCH   5  25
TORSDOF 7
ENDMDL
