MODEL 1
REMARK VINA RESULT:      -5.8      0.000      0.000
REMARK  7 active torsions:
REMARK  status: ('A' for Active; 'I' for Inactive)
REMARK    1  A    between atoms: C2_2  and  C3_3 
REMARK    2  A    between atoms: C3_3  and  C4_4 
REMARK    3  A    between atoms: C7_10  and  C9_14 
REMARK    4  A    between atoms: C10_15  and  O4_30 
REMARK    5  A    between atoms: C13_18  and  S1_20 
REMARK    6  A    between atoms: S1_20  and  N5_23 
REMARK    7  A    between atoms: O4_30  and  C20_31 
ROOT
HETATM    1  C9  VIA     1     -38.178   0.681  -7.654  1.00  0.00     0.045 A 
HETATM    2  C10 VIA     1     -37.086   1.480  -8.066  1.00  0.00     0.082 A 
HETATM    3  C11 VIA     1     -36.652   1.409  -9.399  1.00  0.00     0.039 A 
HETATM    4  C12 VIA     1     -37.280   0.564 -10.318  1.00  0.00     0.028 A 
HETATM    5  C13 VIA     1     -38.350  -0.227  -9.906  1.00  0.00     0.080 A 
HETATM    6  C14 VIA     1     -38.814  -0.154  -8.592  1.00  0.00     0.043 A 
ENDROOT
BRANCH   1   7
HETATM    7  C7  VIA     1     -38.720   0.637  -6.248  1.00  0.00     0.144 A 
HETATM    8  N3  VIA     1     -39.998   0.819  -6.047  1.00  0.00    -0.226 NA
HETATM    9  C6  VIA     1     -40.383   0.753  -4.708  1.00  0.00     0.119 A 
HETATM   10  C4  VIA     1     -41.654   0.895  -4.130  1.00  0.00     0.086 A 
HETATM   11  C5  VIA     1     -39.515   0.514  -3.686  1.00  0.00     0.151 A 
HETATM   12  N1  VIA     1     -41.583   0.752  -2.792  1.00  0.00    -0.174 NA
HETATM   13  N2  VIA     1     -40.268   0.520  -2.555  1.00  0.00    -0.266 N 
HETATM   14  C22 VIA     1     -39.806   0.312  -1.204  1.00  0.00     0.180 C 
HETATM   15  C8  VIA     1     -38.129   0.312  -3.892  1.00  0.00     0.278 A 
HETATM   16  N4  VIA     1     -37.805   0.401  -5.227  1.00  0.00    -0.305 N 
HETATM   17  O1  VIA     1     -37.299   0.080  -3.021  1.00  0.00    -0.265 OA
HETATM   18  H8  VIA     1     -36.832   0.245  -5.454  1.00  0.00     0.170 HD
BRANCH  10  19
HETATM   19  C3  VIA     1     -42.954   1.173  -4.803  1.00  0.00     0.063 C 
BRANCH  19  20
HETATM   20  C2  VIA     1     -43.993   1.823  -3.887  1.00  0.00     0.002 C 
HETATM   21  C1  VIA     1     -44.863   2.847  -4.602  1.00  0.00     0.005 C 
ENDBRANCH  19  20
ENDBRANCH  10  19
ENDBRANCH   1   7
BRANCH   2  22
HETATM   22  O4  VIA     1     -36.498   2.282  -7.121  1.00  0.00    -0.351 OA
BRANCH  22  23
HETATM   23  C20 VIA     1     -35.074   2.374  -7.039  1.00  0.00     0.171 C 
HETATM   24  C21 VIA     1     -34.492   1.151  -6.354  1.00  0.00     0.034 C 
ENDBRANCH  22  23
ENDBRANCH   2  22
BRANCH   5  25
HETATM   25  S1  VIA     1     -39.180  -1.282 -11.076  1.00  0.00     0.261 S 
HETATM   26  O2  VIA     1     -38.393  -2.490 -11.202  1.00  0.00    -0.200 OA
HETATM   27  O3  VIA     1     -40.574  -1.339 -10.684  1.00  0.00    -0.200 OA
BRANCH  25  28
HETATM   28  N5  VIA     1     -39.082  -0.423 -12.530  1.00  0.00    -0.303 N 
HETATM   29  C15 VIA     1     -38.858  -1.217 -13.770  1.00  0.00     0.165 C 
HETATM   30  C16 VIA     1     -38.444  -0.285 -14.928  1.00  0.00     0.292 C 
HETATM   31  N6  VIA     1     -39.442   0.779 -15.171  1.00  0.00     0.087 N 
HETATM   32  C17 VIA     1     -39.640   1.557 -13.927  1.00  0.00     0.292 C 
HETATM   33  C19 VIA     1     -39.004   1.655 -16.257  1.00  0.00     0.310 C 
HETATM   34  C18 VIA     1     -40.079   0.664 -12.749  1.00  0.00     0.165 C 
ENDBRANCH  25  28
ENDBRANCH   5  25
TORSDOF 7
ENDMDL
