MODEL 1
REMARK VINA RESULT:      -6.8      0.000      0.000
REMARK  7 active torsions:
REMARK  status: ('A' for Active; 'I' for Inactive)
REMARK    1  A    between atoms: C2_2  and  C3_3 
REMARK    2  A    between atoms: C3_3  and  C4_4 
REMARK    3  A    between atoms: C7_10  and  C9_14 
REMARK    4  A    between atoms: C10_15  and  O4_30 
REMARK    5  A    between atoms: C13_18  and  S1_20 
REMARK    6  A    between atoms: S1_20  and  N5_23 
REMARK    7  A    between atoms: O4_30  and  C20_31 
ROOT
HETATM    1  C9  VIA     1     -53.461  -7.660  -9.362  1.00  0.00     0.045 A 
HETATM    2  C10 VIA     1     -53.964  -6.492  -9.983  1.00  0.00     0.082 A 
HETATM    3  C11 VIA     1     -53.062  -5.532 -10.464  1.00  0.00     0.039 A 
HETATM    4  C12 VIA     1     -51.682  -5.711 -10.337  1.00  0.00     0.028 A 
HETATM    5  C13 VIA     1     -51.191  -6.858  -9.717  1.00  0.00     0.080 A 
HETATM    6  C14 VIA     1     -52.070  -7.838  -9.254  1.00  0.00     0.043 A 
ENDROOT
BRANCH   1   7
HETATM    7  C7  VIA     1     -54.321  -8.750  -8.773  1.00  0.00     0.144 A 
HETATM    8  N3  VIA     1     -54.378  -8.891  -7.476  1.00  0.00    -0.226 NA
HETATM    9  C6  VIA     1     -55.207  -9.929  -7.049  1.00  0.00     0.119 A 
HETATM   10  C4  VIA     1     -55.506 -10.362  -5.747  1.00  0.00     0.086 A 
HETATM   11  C5  VIA     1     -55.908 -10.730  -7.897  1.00  0.00     0.151 A 
HETATM   12  N1  VIA     1     -56.364 -11.401  -5.781  1.00  0.00    -0.174 NA
HETATM   13  N2  VIA     1     -56.589 -11.599  -7.104  1.00  0.00    -0.266 N 
HETATM   14  C22 VIA     1     -57.478 -12.651  -7.534  1.00  0.00     0.180 C 
HETATM   15  C8  VIA     1     -55.856 -10.584  -9.304  1.00  0.00     0.278 A 
HETATM   16  N4  VIA     1     -55.015  -9.557  -9.668  1.00  0.00    -0.305 N 
HETATM   17  O1  VIA     1     -56.471 -11.261 -10.120  1.00  0.00    -0.265 OA
HETATM   18  H8  VIA     1     -54.945  -9.378 -10.661  1.00  0.00     0.170 HD
BRANCH  10  19
HETATM   19  C3  VIA     1     -54.999  -9.829  -4.452  1.00  0.00     0.063 C 
BRANCH  19  20
HETATM   20  C2  VIA     1     -55.612  -8.482  -4.060  1.00  0.00     0.002 C 
HETATM   21  C1  VIA     1     -54.933  -7.845  -2.856  1.00  0.00     0.005 C 
ENDBRANCH  19  20
ENDBRANCH  10  19
ENDBRANCH   1   7
BRANCH   2  22
HETATM   22  O4  VIA     1     -55.327  -6.360 -10.070  1.00  0.00    -0.351 OA
BRANCH  22  23
HETATM   23  C20 VIA     1     -55.993  -5.293  -9.392  1.00  0.00     0.171 C 
HETATM   24  C21 VIA     1     -57.350  -5.742  -8.880  1.00  0.00     0.034 C 
ENDBRANCH  22  23
ENDBRANCH   2  22
BRANCH   5  25
HETATM   25  S1  VIA     1     -49.434  -7.114  -9.580  1.00  0.00     0.261 S 
HETATM   26  O2  VIA     1     -49.113  -8.309 -10.330  1.00  0.00    -0.200 OA
HETATM   27  O3  VIA     1     -48.793  -5.851  -9.882  1.00  0.00    -0.200 OA
BRANCH  25  28
HETATM   28  N5  VIA     1     -49.203  -7.436  -7.935  1.00  0.00    -0.303 N 
HETATM   29  C15 VIA     1     -49.761  -6.450  -6.969  1.00  0.00     0.165 C 
HETATM   30  C16 VIA     1     -49.170  -6.692  -5.564  1.00  0.00     0.292 C 
HETATM   31  N6  VIA     1     -49.411  -8.071  -5.089  1.00  0.00     0.087 N 
HETATM   32  C17 VIA     1     -48.841  -9.030  -6.062  1.00  0.00     0.292 C 
HETATM   33  C19 VIA     1     -48.816  -8.270  -3.768  1.00  0.00     0.310 C 
HETATM   34  C18 VIA     1     -49.425  -8.837  -7.476  1.00  0.00     0.165 C 
ENDBRANCH  25  28
ENDBRANCH   5  25
TORSDOF 7
ENDMDL
