MODEL 1
REMARK VINA RESULT:      -6.5      0.000      0.000
REMARK  7 active torsions:
REMARK  status: ('A' for Active; 'I' for Inactive)
REMARK    1  A    between atoms: C2_2  and  C3_3 
REMARK    2  A    between atoms: C3_3  and  C4_4 
REMARK    3  A    between atoms: C7_10  and  C9_14 
REMARK    4  A    between atoms: C10_15  and  O4_30 
REMARK    5  A    between atoms: C13_18  and  S1_20 
REMARK    6  A    between atoms: S1_20  and  N5_23 
REMARK    7  A    between atoms: O4_30  and  C20_31 
ROOT
HETATM    1  C9  VIA     1     -55.316 -10.624 -10.124  1.00  0.00     0.045 A 
HETATM    2  C10 VIA     1     -55.403 -11.202 -11.413  1.00  0.00     0.082 A 
HETATM    3  C11 VIA     1     -56.051 -12.437 -11.565  1.00  0.00     0.039 A 
HETATM    4  C12 VIA     1     -56.605 -13.101 -10.468  1.00  0.00     0.028 A 
HETATM    5  C13 VIA     1     -56.510 -12.533  -9.200  1.00  0.00     0.080 A 
HETATM    6  C14 VIA     1     -55.893 -11.293  -9.028  1.00  0.00     0.043 A 
ENDROOT
BRANCH   1   7
HETATM    7  C7  VIA     1     -54.620  -9.322  -9.818  1.00  0.00     0.144 A 
HETATM    8  N3  VIA     1     -55.185  -8.468  -9.008  1.00  0.00    -0.226 NA
HETATM    9  C6  VIA     1     -54.448  -7.303  -8.797  1.00  0.00     0.119 A 
HETATM   10  C4  VIA     1     -54.740  -6.185  -7.999  1.00  0.00     0.086 A 
HETATM   11  C5  VIA     1     -53.238  -7.063  -9.375  1.00  0.00     0.151 A 
HETATM   12  N1  VIA     1     -53.747  -5.278  -8.076  1.00  0.00    -0.174 NA
HETATM   13  N2  VIA     1     -52.848  -5.843  -8.921  1.00  0.00    -0.266 N 
HETATM   14  C22 VIA     1     -51.628  -5.145  -9.247  1.00  0.00     0.180 C 
HETATM   15  C8  VIA     1     -52.614  -7.983 -10.251  1.00  0.00     0.278 A 
HETATM   16  N4  VIA     1     -53.391  -9.105 -10.432  1.00  0.00    -0.305 N 
HETATM   17  O1  VIA     1     -51.524  -7.835 -10.792  1.00  0.00    -0.265 OA
HETATM   18  H8  VIA     1     -52.998  -9.819 -11.031  1.00  0.00     0.170 HD
BRANCH  10  19
HETATM   19  C3  VIA     1     -55.944  -5.935  -7.158  1.00  0.00     0.063 C 
BRANCH  19  20
HETATM   20  C2  VIA     1     -57.196  -5.589  -7.967  1.00  0.00     0.002 C 
HETATM   21  C1  VIA     1     -58.465  -5.575  -7.126  1.00  0.00     0.005 C 
ENDBRANCH  19  20
ENDBRANCH  10  19
ENDBRANCH   1   7
BRANCH   2  22
HETATM   22  O4  VIA     1     -54.830 -10.514 -12.452  1.00  0.00    -0.351 OA
BRANCH  22  23
HETATM   23  C20 VIA     1     -55.647  -9.957 -13.484  1.00  0.00     0.171 C 
HETATM   24  C21 VIA     1     -56.113  -8.562 -13.109  1.00  0.00     0.034 C 
ENDBRANCH  22  23
ENDBRANCH   2  22
BRANCH   5  25
HETATM   25  S1  VIA     1     -57.243 -13.352  -7.799  1.00  0.00     0.261 S 
HETATM   26  O2  VIA     1     -56.388 -14.468  -7.455  1.00  0.00    -0.200 OA
HETATM   27  O3  VIA     1     -57.560 -12.329  -6.823  1.00  0.00    -0.200 OA
BRANCH  25  28
HETATM   28  N5  VIA     1     -58.700 -13.961  -8.408  1.00  0.00    -0.303 N 
HETATM   29  C15 VIA     1     -59.254 -15.175  -7.746  1.00  0.00     0.165 C 
HETATM   30  C16 VIA     1     -60.362 -15.796  -8.622  1.00  0.00     0.292 C 
HETATM   31  N6  VIA     1     -61.443 -14.832  -8.919  1.00  0.00     0.087 N 
HETATM   32  C17 VIA     1     -60.868 -13.640  -9.582  1.00  0.00     0.292 C 
HETATM   33  C19 VIA     1     -62.460 -15.449  -9.770  1.00  0.00     0.310 C 
HETATM   34  C18 VIA     1     -59.771 -12.974  -8.727  1.00  0.00     0.165 C 
ENDBRANCH  25  28
ENDBRANCH   5  25
TORSDOF 7
ENDMDL
