MODEL 1
REMARK VINA RESULT:      -5.5      0.000      0.000
REMARK  7 active torsions:
REMARK  status: ('A' for Active; 'I' for Inactive)
REMARK    1  A    between atoms: C2_2  and  C3_3 
REMARK    2  A    between atoms: C3_3  and  C4_4 
REMARK    3  A    between atoms: C7_10  and  C9_14 
REMARK    4  A    between atoms: C10_15  and  O4_30 
REMARK    5  A    between atoms: C13_18  and  S1_20 
REMARK    6  A    between atoms: S1_20  and  N5_23 
REMARK    7  A    between atoms: O4_30  and  C20_31 
ROOT
HETATM    1  C9  VIA     1     -33.704  -1.799 -31.127  1.00  0.00     0.045 A 
HETATM    2  C10 VIA     1     -34.919  -1.096 -31.309  1.00  0.00     0.082 A 
HETATM    3  C11 VIA     1     -34.964   0.277 -31.023  1.00  0.00     0.039 A 
HETATM    4  C12 VIA     1     -33.832   0.955 -30.563  1.00  0.00     0.028 A 
HETATM    5  C13 VIA     1     -32.641   0.258 -30.377  1.00  0.00     0.080 A 
HETATM    6  C14 VIA     1     -32.566  -1.102 -30.679  1.00  0.00     0.043 A 
ENDROOT
BRANCH   1   7
HETATM    7  C7  VIA     1     -33.530  -3.278 -31.364  1.00  0.00     0.144 A 
HETATM    8  N3  VIA     1     -32.972  -4.013 -30.440  1.00  0.00    -0.226 NA
HETATM    9  C6  VIA     1     -32.868  -5.365 -30.769  1.00  0.00     0.119 A 
HETATM   10  C4  VIA     1     -32.334  -6.432 -30.029  1.00  0.00     0.086 A 
HETATM   11  C5  VIA     1     -33.312  -5.890 -31.944  1.00  0.00     0.151 A 
HETATM   12  N1  VIA     1     -32.439  -7.584 -30.719  1.00  0.00    -0.174 NA
HETATM   13  N2  VIA     1     -33.039  -7.219 -31.881  1.00  0.00    -0.266 N 
HETATM   14  C22 VIA     1     -33.320  -8.212 -32.889  1.00  0.00     0.180 C 
HETATM   15  C8  VIA     1     -33.922  -5.103 -32.951  1.00  0.00     0.278 A 
HETATM   16  N4  VIA     1     -33.985  -3.779 -32.579  1.00  0.00    -0.305 N 
HETATM   17  O1  VIA     1     -34.353  -5.513 -34.022  1.00  0.00    -0.265 OA
HETATM   18  H8  VIA     1     -34.430  -3.158 -33.241  1.00  0.00     0.170 HD
BRANCH  10  19
HETATM   19  C3  VIA     1     -31.712  -6.403 -28.676  1.00  0.00     0.063 C 
BRANCH  19  20
HETATM   20  C2  VIA     1     -32.634  -6.914 -27.566  1.00  0.00     0.002 C 
HETATM   21  C1  VIA     1     -33.621  -5.863 -27.077  1.00  0.00     0.005 C 
ENDBRANCH  19  20
ENDBRANCH  10  19
ENDBRANCH   1   7
BRANCH   2  22
HETATM   22  O4  VIA     1     -36.002  -1.813 -31.750  1.00  0.00    -0.351 OA
BRANCH  22  23
HETATM   23  C20 VIA     1     -37.156  -1.138 -32.256  1.00  0.00     0.171 C 
HETATM   24  C21 VIA     1     -38.344  -1.333 -31.331  1.00  0.00     0.034 C 
ENDBRANCH  22  23
ENDBRANCH   2  22
BRANCH   5  25
HETATM   25  S1  VIA     1     -31.183   1.118 -29.824  1.00  0.00     0.261 S 
HETATM   26  O2  VIA     1     -30.439   1.508 -31.003  1.00  0.00    -0.200 OA
HETATM   27  O3  VIA     1     -31.611   2.106 -28.855  1.00  0.00    -0.200 OA
BRANCH  25  28
HETATM   28  N5  VIA     1     -30.302  -0.071 -29.004  1.00  0.00    -0.303 N 
HETATM   29  C15 VIA     1     -29.082  -0.594 -29.677  1.00  0.00     0.165 C 
HETATM   30  C16 VIA     1     -28.608  -1.889 -28.985  1.00  0.00     0.292 C 
HETATM   31  N6  VIA     1     -28.355  -1.688 -27.542  1.00  0.00     0.087 N 
HETATM   32  C17 VIA     1     -29.585  -1.176 -26.896  1.00  0.00     0.292 C 
HETATM   33  C19 VIA     1     -27.933  -2.941 -26.916  1.00  0.00     0.310 C 
HETATM   34  C18 VIA     1     -30.078   0.133 -27.544  1.00  0.00     0.165 C 
ENDBRANCH  25  28
ENDBRANCH   5  25
TORSDOF 7
ENDMDL
