MODEL 1
REMARK VINA RESULT:      -6.4      0.000      0.000
REMARK  7 active torsions:
REMARK  status: ('A' for Active; 'I' for Inactive)
REMARK    1  A    between atoms: C2_2  and  C3_3 
REMARK    2  A    between atoms: C3_3  and  C4_4 
REMARK    3  A    between atoms: C7_10  and  C9_14 
REMARK    4  A    between atoms: C10_15  and  O4_30 
REMARK    5  A    between atoms: C13_18  and  S1_20 
REMARK    6  A    between atoms: S1_20  and  N5_23 
REMARK    7  A    between atoms: O4_30  and  C20_31 
ROOT
HETATM    1  C9  VIA     1     -57.040 -11.391  -8.958  1.00  0.00     0.045 A 
HETATM    2  C10 VIA     1     -56.676 -12.077 -10.141  1.00  0.00     0.082 A 
HETATM    3  C11 VIA     1     -57.118 -13.396 -10.329  1.00  0.00     0.039 A 
HETATM    4  C12 VIA     1     -57.907 -14.035  -9.369  1.00  0.00     0.028 A 
HETATM    5  C13 VIA     1     -58.256 -13.359  -8.203  1.00  0.00     0.080 A 
HETATM    6  C14 VIA     1     -57.848 -12.039  -8.006  1.00  0.00     0.043 A 
ENDROOT
BRANCH   1   7
HETATM    7  C7  VIA     1     -56.604  -9.988  -8.619  1.00  0.00     0.144 A 
HETATM    8  N3  VIA     1     -55.996  -9.762  -7.485  1.00  0.00    -0.226 NA
HETATM    9  C6  VIA     1     -55.638  -8.430  -7.282  1.00  0.00     0.119 A 
HETATM   10  C4  VIA     1     -54.979  -7.831  -6.196  1.00  0.00     0.086 A 
HETATM   11  C5  VIA     1     -55.887  -7.438  -8.181  1.00  0.00     0.151 A 
HETATM   12  N1  VIA     1     -54.823  -6.510  -6.409  1.00  0.00    -0.174 NA
HETATM   13  N2  VIA     1     -55.386  -6.303  -7.626  1.00  0.00    -0.266 N 
HETATM   14  C22 VIA     1     -55.404  -4.977  -8.196  1.00  0.00     0.180 C 
HETATM   15  C8  VIA     1     -56.541  -7.671  -9.415  1.00  0.00     0.278 A 
HETATM   16  N4  VIA     1     -56.883  -8.998  -9.555  1.00  0.00    -0.305 N 
HETATM   17  O1  VIA     1     -56.783  -6.828 -10.271  1.00  0.00    -0.265 OA
HETATM   18  H8  VIA     1     -57.336  -9.244 -10.424  1.00  0.00     0.170 HD
BRANCH  10  19
HETATM   19  C3  VIA     1     -54.489  -8.468  -4.942  1.00  0.00     0.063 C 
BRANCH  19  20
HETATM   20  C2  VIA     1     -55.486  -8.389  -3.784  1.00  0.00     0.002 C 
HETATM   21  C1  VIA     1     -54.895  -7.763  -2.528  1.00  0.00     0.005 C 
ENDBRANCH  19  20
ENDBRANCH  10  19
ENDBRANCH   1   7
BRANCH   2  22
HETATM   22  O4  VIA     1     -55.890 -11.407 -11.044  1.00  0.00    -0.351 OA
BRANCH  22  23
HETATM   23  C20 VIA     1     -54.496 -11.704 -11.145  1.00  0.00     0.171 C 
HETATM   24  C21 VIA     1     -53.658 -10.479 -10.823  1.00  0.00     0.034 C 
ENDBRANCH  22  23
ENDBRANCH   2  22
BRANCH   5  25
HETATM   25  S1  VIA     1     -59.289 -14.151  -6.989  1.00  0.00     0.261 S 
HETATM   26  O2  VIA     1     -58.467 -15.110  -6.281  1.00  0.00    -0.200 OA
HETATM   27  O3  VIA     1     -59.990 -13.103  -6.275  1.00  0.00    -0.200 OA
BRANCH  25  28
HETATM   28  N5  VIA     1     -60.422 -14.999  -7.917  1.00  0.00    -0.303 N 
HETATM   29  C15 VIA     1     -60.883 -16.311  -7.388  1.00  0.00     0.165 C 
HETATM   30  C16 VIA     1     -61.618 -17.100  -8.492  1.00  0.00     0.292 C 
HETATM   31  N6  VIA     1     -62.757 -16.341  -9.053  1.00  0.00     0.087 N 
HETATM   32  C17 VIA     1     -62.271 -15.045  -9.578  1.00  0.00     0.292 C 
HETATM   33  C19 VIA     1     -63.412 -17.108 -10.112  1.00  0.00     0.310 C 
HETATM   34  C18 VIA     1     -61.550 -14.215  -8.497  1.00  0.00     0.165 C 
ENDBRANCH  25  28
ENDBRANCH   5  25
TORSDOF 7
ENDMDL
