MODEL 1
REMARK VINA RESULT:      -6.2      0.000      0.000
REMARK  7 active torsions:
REMARK  status: ('A' for Active; 'I' for Inactive)
REMARK    1  A    between atoms: C2_2  and  C3_3 
REMARK    2  A    between atoms: C3_3  and  C4_4 
REMARK    3  A    between atoms: C7_10  and  C9_14 
REMARK    4  A    between atoms: C10_15  and  O4_30 
REMARK    5  A    between atoms: C13_18  and  S1_20 
REMARK    6  A    between atoms: S1_20  and  N5_23 
REMARK    7  A    between atoms: O4_30  and  C20_31 
ROOT
HETATM    1  C9  VIA     1     -72.928  -1.567  -2.020  1.00  0.00     0.045 A 
HETATM    2  C10 VIA     1     -73.543  -0.521  -1.292  1.00  0.00     0.082 A 
HETATM    3  C11 VIA     1     -74.586   0.204  -1.888  1.00  0.00     0.039 A 
HETATM    4  C12 VIA     1     -75.020  -0.090  -3.183  1.00  0.00     0.028 A 
HETATM    5  C13 VIA     1     -74.407  -1.114  -3.899  1.00  0.00     0.080 A 
HETATM    6  C14 VIA     1     -73.384  -1.866  -3.317  1.00  0.00     0.043 A 
ENDROOT
BRANCH   1   7
HETATM    7  C7  VIA     1     -71.778  -2.399  -1.510  1.00  0.00     0.144 A 
HETATM    8  N3  VIA     1     -71.967  -3.667  -1.259  1.00  0.00    -0.226 NA
HETATM    9  C6  VIA     1     -70.832  -4.334  -0.797  1.00  0.00     0.119 A 
HETATM   10  C4  VIA     1     -70.666  -5.680  -0.435  1.00  0.00     0.086 A 
HETATM   11  C5  VIA     1     -69.623  -3.732  -0.623  1.00  0.00     0.151 A 
HETATM   12  N1  VIA     1     -69.396  -5.911  -0.046  1.00  0.00    -0.174 NA
HETATM   13  N2  VIA     1     -68.788  -4.705  -0.173  1.00  0.00    -0.266 N 
HETATM   14  C22 VIA     1     -67.391  -4.565   0.159  1.00  0.00     0.180 C 
HETATM   15  C8  VIA     1     -69.407  -2.360  -0.895  1.00  0.00     0.278 A 
HETATM   16  N4  VIA     1     -70.560  -1.750  -1.334  1.00  0.00    -0.305 N 
HETATM   17  O1  VIA     1     -68.344  -1.762  -0.773  1.00  0.00    -0.265 OA
HETATM   18  H8  VIA     1     -70.476  -0.771  -1.571  1.00  0.00     0.170 HD
BRANCH  10  19
HETATM   19  C3  VIA     1     -71.678  -6.773  -0.435  1.00  0.00     0.063 C 
BRANCH  19  20
HETATM   20  C2  VIA     1     -72.040  -7.274  -1.835  1.00  0.00     0.002 C 
HETATM   21  C1  VIA     1     -72.571  -8.701  -1.840  1.00  0.00     0.005 C 
ENDBRANCH  19  20
ENDBRANCH  10  19
ENDBRANCH   1   7
BRANCH   2  22
HETATM   22  O4  VIA     1     -73.069  -0.266  -0.030  1.00  0.00    -0.351 OA
BRANCH  22  23
HETATM   23  C20 VIA     1     -72.581   1.034   0.307  1.00  0.00     0.171 C 
HETATM   24  C21 VIA     1     -71.220   0.942   0.975  1.00  0.00     0.034 C 
ENDBRANCH  22  23
ENDBRANCH   2  22
BRANCH   5  25
HETATM   25  S1  VIA     1     -74.975  -1.522  -5.537  1.00  0.00     0.261 S 
HETATM   26  O2  VIA     1     -75.341  -0.282  -6.187  1.00  0.00    -0.200 OA
HETATM   27  O3  VIA     1     -73.988  -2.406  -6.123  1.00  0.00    -0.200 OA
BRANCH  25  28
HETATM   28  N5  VIA     1     -76.382  -2.420  -5.262  1.00  0.00    -0.303 N 
HETATM   29  C15 VIA     1     -77.656  -1.857  -5.788  1.00  0.00     0.165 C 
HETATM   30  C16 VIA     1     -78.859  -2.591  -5.160  1.00  0.00     0.292 C 
HETATM   31  N6  VIA     1     -78.805  -4.051  -5.393  1.00  0.00     0.087 N 
HETATM   32  C17 VIA     1     -77.533  -4.585  -4.855  1.00  0.00     0.292 C 
HETATM   33  C19 VIA     1     -79.945  -4.714  -4.763  1.00  0.00     0.310 C 
HETATM   34  C18 VIA     1     -76.304  -3.893  -5.477  1.00  0.00     0.165 C 
ENDBRANCH  25  28
ENDBRANCH   5  25
TORSDOF 7
ENDMDL
