MODEL 1
REMARK VINA RESULT:      -5.9      0.000      0.000
REMARK  7 active torsions:
REMARK  status: ('A' for Active; 'I' for Inactive)
REMARK    1  A    between atoms: C2_2  and  C3_3 
REMARK    2  A    between atoms: C3_3  and  C4_4 
REMARK    3  A    between atoms: C7_10  and  C9_14 
REMARK    4  A    between atoms: C10_15  and  O4_30 
REMARK    5  A    between atoms: C13_18  and  S1_20 
REMARK    6  A    between atoms: S1_20  and  N5_23 
REMARK    7  A    between atoms: O4_30  and  C20_31 
ROOT
HETATM    1  C9  VIA     1     -38.280   0.687  -7.606  1.00  0.00     0.045 A 
HETATM    2  C10 VIA     1     -37.203   1.510  -8.014  1.00  0.00     0.082 A 
HETATM    3  C11 VIA     1     -36.770   1.457  -9.347  1.00  0.00     0.039 A 
HETATM    4  C12 VIA     1     -37.383   0.607 -10.271  1.00  0.00     0.028 A 
HETATM    5  C13 VIA     1     -38.438  -0.206  -9.864  1.00  0.00     0.080 A 
HETATM    6  C14 VIA     1     -38.902  -0.152  -8.549  1.00  0.00     0.043 A 
ENDROOT
BRANCH   1   7
HETATM    7  C7  VIA     1     -38.819   0.624  -6.199  1.00  0.00     0.144 A 
HETATM    8  N3  VIA     1     -40.097   0.799  -5.995  1.00  0.00    -0.226 NA
HETATM    9  C6  VIA     1     -40.480   0.714  -4.656  1.00  0.00     0.119 A 
HETATM   10  C4  VIA     1     -41.751   0.844  -4.074  1.00  0.00     0.086 A 
HETATM   11  C5  VIA     1     -39.610   0.464  -3.639  1.00  0.00     0.151 A 
HETATM   12  N1  VIA     1     -41.677   0.683  -2.738  1.00  0.00    -0.174 NA
HETATM   13  N2  VIA     1     -40.360   0.453  -2.506  1.00  0.00    -0.266 N 
HETATM   14  C22 VIA     1     -39.895   0.228  -1.159  1.00  0.00     0.180 C 
HETATM   15  C8  VIA     1     -38.224   0.268  -3.850  1.00  0.00     0.278 A 
HETATM   16  N4  VIA     1     -37.902   0.377  -5.184  1.00  0.00    -0.305 N 
HETATM   17  O1  VIA     1     -37.392   0.028  -2.983  1.00  0.00    -0.265 OA
HETATM   18  H8  VIA     1     -36.929   0.226  -5.414  1.00  0.00     0.170 HD
BRANCH  10  19
HETATM   19  C3  VIA     1     -43.052   1.127  -4.741  1.00  0.00     0.063 C 
BRANCH  19  20
HETATM   20  C2  VIA     1     -43.988   2.011  -3.912  1.00  0.00     0.002 C 
HETATM   21  C1  VIA     1     -44.920   2.859  -4.765  1.00  0.00     0.005 C 
ENDBRANCH  19  20
ENDBRANCH  10  19
ENDBRANCH   1   7
BRANCH   2  22
HETATM   22  O4  VIA     1     -36.629   2.315  -7.063  1.00  0.00    -0.351 OA
BRANCH  22  23
HETATM   23  C20 VIA     1     -35.207   2.373  -6.931  1.00  0.00     0.171 C 
HETATM   24  C21 VIA     1     -34.661   1.060  -6.399  1.00  0.00     0.034 C 
ENDBRANCH  22  23
ENDBRANCH   2  22
BRANCH   5  25
HETATM   25  S1  VIA     1     -39.250  -1.267 -11.041  1.00  0.00     0.261 S 
HETATM   26  O2  VIA     1     -38.470  -2.483 -11.137  1.00  0.00    -0.200 OA
HETATM   27  O3  VIA     1     -40.653  -1.310 -10.680  1.00  0.00    -0.200 OA
BRANCH  25  28
HETATM   28  N5  VIA     1     -39.113  -0.425 -12.502  1.00  0.00    -0.303 N 
HETATM   29  C15 VIA     1     -38.822  -1.229 -13.721  1.00  0.00     0.165 C 
HETATM   30  C16 VIA     1     -38.383  -0.303 -14.874  1.00  0.00     0.292 C 
HETATM   31  N6  VIA     1     -39.394   0.735 -15.171  1.00  0.00     0.087 N 
HETATM   32  C17 VIA     1     -39.660   1.523 -13.947  1.00  0.00     0.292 C 
HETATM   33  C19 VIA     1     -38.932   1.607 -16.250  1.00  0.00     0.310 C 
HETATM   34  C18 VIA     1     -40.125   0.635 -12.775  1.00  0.00     0.165 C 
ENDBRANCH  25  28
ENDBRANCH   5  25
TORSDOF 7
ENDMDL
