MODEL 1
REMARK VINA RESULT:      -6.6      0.000      0.000
REMARK  7 active torsions:
REMARK  status: ('A' for Active; 'I' for Inactive)
REMARK    1  A    between atoms: C2_2  and  C3_3 
REMARK    2  A    between atoms: C3_3  and  C4_4 
REMARK    3  A    between atoms: C7_10  and  C9_14 
REMARK    4  A    between atoms: C10_15  and  O4_30 
REMARK    5  A    between atoms: C13_18  and  S1_20 
REMARK    6  A    between atoms: S1_20  and  N5_23 
REMARK    7  A    between atoms: O4_30  and  C20_31 
ROOT
HETATM    1  C9  VIA     1     -53.536  -7.766  -9.353  1.00  0.00     0.045 A 
HETATM    2  C10 VIA     1     -54.040  -6.575  -9.927  1.00  0.00     0.082 A 
HETATM    3  C11 VIA     1     -53.138  -5.621 -10.424  1.00  0.00     0.039 A 
HETATM    4  C12 VIA     1     -51.758  -5.831 -10.358  1.00  0.00     0.028 A 
HETATM    5  C13 VIA     1     -51.266  -7.001  -9.785  1.00  0.00     0.080 A 
HETATM    6  C14 VIA     1     -52.145  -7.974  -9.308  1.00  0.00     0.043 A 
ENDROOT
BRANCH   1   7
HETATM    7  C7  VIA     1     -54.393  -8.852  -8.754  1.00  0.00     0.144 A 
HETATM    8  N3  VIA     1     -54.449  -8.981  -7.455  1.00  0.00    -0.226 NA
HETATM    9  C6  VIA     1     -55.276 -10.016  -7.017  1.00  0.00     0.119 A 
HETATM   10  C4  VIA     1     -55.574 -10.437  -5.712  1.00  0.00     0.086 A 
HETATM   11  C5  VIA     1     -55.975 -10.827  -7.857  1.00  0.00     0.151 A 
HETATM   12  N1  VIA     1     -56.429 -11.478  -5.735  1.00  0.00    -0.174 NA
HETATM   13  N2  VIA     1     -56.654 -11.690  -7.056  1.00  0.00    -0.266 N 
HETATM   14  C22 VIA     1     -57.540 -12.748  -7.475  1.00  0.00     0.180 C 
HETATM   15  C8  VIA     1     -55.924 -10.695  -9.266  1.00  0.00     0.278 A 
HETATM   16  N4  VIA     1     -55.085  -9.670  -9.641  1.00  0.00    -0.305 N 
HETATM   17  O1  VIA     1     -56.537 -11.382 -10.075  1.00  0.00    -0.265 OA
HETATM   18  H8  VIA     1     -55.016  -9.501 -10.635  1.00  0.00     0.170 HD
BRANCH  10  19
HETATM   19  C3  VIA     1     -55.068  -9.889  -4.422  1.00  0.00     0.063 C 
BRANCH  19  20
HETATM   20  C2  VIA     1     -55.642  -8.515  -4.071  1.00  0.00     0.002 C 
HETATM   21  C1  VIA     1     -54.925  -7.848  -2.906  1.00  0.00     0.005 C 
ENDBRANCH  19  20
ENDBRANCH  10  19
ENDBRANCH   1   7
BRANCH   2  22
HETATM   22  O4  VIA     1     -55.402  -6.414  -9.954  1.00  0.00    -0.351 OA
BRANCH  22  23
HETATM   23  C20 VIA     1     -56.006  -5.280  -9.329  1.00  0.00     0.171 C 
HETATM   24  C21 VIA     1     -55.952  -5.406  -7.817  1.00  0.00     0.034 C 
ENDBRANCH  22  23
ENDBRANCH   2  22
BRANCH   5  25
HETATM   25  S1  VIA     1     -49.511  -7.295  -9.728  1.00  0.00     0.261 S 
HETATM   26  O2  VIA     1     -49.258  -8.538 -10.424  1.00  0.00    -0.200 OA
HETATM   27  O3  VIA     1     -48.858  -6.068 -10.136  1.00  0.00    -0.200 OA
BRANCH  25  28
HETATM   28  N5  VIA     1     -49.198  -7.530  -8.081  1.00  0.00    -0.303 N 
HETATM   29  C15 VIA     1     -49.778  -6.538  -7.135  1.00  0.00     0.165 C 
HETATM   30  C16 VIA     1     -49.120  -6.683  -5.747  1.00  0.00     0.292 C 
HETATM   31  N6  VIA     1     -49.257  -8.052  -5.206  1.00  0.00     0.087 N 
HETATM   32  C17 VIA     1     -48.666  -9.017  -6.161  1.00  0.00     0.292 C 
HETATM   33  C19 VIA     1     -48.601  -8.157  -3.903  1.00  0.00     0.310 C 
HETATM   34  C18 VIA     1     -49.314  -8.921  -7.557  1.00  0.00     0.165 C 
ENDBRANCH  25  28
ENDBRANCH   5  25
TORSDOF 7
ENDMDL
