MODEL 1
REMARK VINA RESULT:      -6.8      0.000      0.000
REMARK  7 active torsions:
REMARK  status: ('A' for Active; 'I' for Inactive)
REMARK    1  A    between atoms: C2_2  and  C3_3 
REMARK    2  A    between atoms: C3_3  and  C4_4 
REMARK    3  A    between atoms: C7_10  and  C9_14 
REMARK    4  A    between atoms: C10_15  and  O4_30 
REMARK    5  A    between atoms: C13_18  and  S1_20 
REMARK    6  A    between atoms: S1_20  and  N5_23 
REMARK    7  A    between atoms: O4_30  and  C20_31 
ROOT
HETATM    1  C9  VIA     1     -53.463  -7.630  -9.372  1.00  0.00     0.045 A 
HETATM    2  C10 VIA     1     -53.966  -6.458  -9.984  1.00  0.00     0.082 A 
HETATM    3  C11 VIA     1     -53.063  -5.495 -10.459  1.00  0.00     0.039 A 
HETATM    4  C12 VIA     1     -51.683  -5.676 -10.334  1.00  0.00     0.028 A 
HETATM    5  C13 VIA     1     -51.193  -6.827  -9.724  1.00  0.00     0.080 A 
HETATM    6  C14 VIA     1     -52.072  -7.811  -9.266  1.00  0.00     0.043 A 
ENDROOT
BRANCH   1   7
HETATM    7  C7  VIA     1     -54.323  -8.724  -8.790  1.00  0.00     0.144 A 
HETATM    8  N3  VIA     1     -54.383  -8.871  -7.494  1.00  0.00    -0.226 NA
HETATM    9  C6  VIA     1     -55.212  -9.911  -7.073  1.00  0.00     0.119 A 
HETATM   10  C4  VIA     1     -55.514 -10.351  -5.774  1.00  0.00     0.086 A 
HETATM   11  C5  VIA     1     -55.910 -10.710  -7.926  1.00  0.00     0.151 A 
HETATM   12  N1  VIA     1     -56.371 -11.390  -5.815  1.00  0.00    -0.174 NA
HETATM   13  N2  VIA     1     -56.592 -11.583  -7.140  1.00  0.00    -0.266 N 
HETATM   14  C22 VIA     1     -57.479 -12.634  -7.576  1.00  0.00     0.180 C 
HETATM   15  C8  VIA     1     -55.855 -10.558  -9.333  1.00  0.00     0.278 A 
HETATM   16  N4  VIA     1     -55.014  -9.528  -9.691  1.00  0.00    -0.305 N 
HETATM   17  O1  VIA     1     -56.467 -11.232 -10.153  1.00  0.00    -0.265 OA
HETATM   18  H8  VIA     1     -54.942  -9.345 -10.682  1.00  0.00     0.170 HD
BRANCH  10  19
HETATM   19  C3  VIA     1     -55.012  -9.823  -4.475  1.00  0.00     0.063 C 
BRANCH  19  20
HETATM   20  C2  VIA     1     -55.650  -8.494  -4.064  1.00  0.00     0.002 C 
HETATM   21  C1  VIA     1     -54.952  -7.836  -2.883  1.00  0.00     0.005 C 
ENDBRANCH  19  20
ENDBRANCH  10  19
ENDBRANCH   1   7
BRANCH   2  22
HETATM   22  O4  VIA     1     -55.329  -6.324 -10.069  1.00  0.00    -0.351 OA
BRANCH  22  23
HETATM   23  C20 VIA     1     -55.995  -5.275  -9.364  1.00  0.00     0.171 C 
HETATM   24  C21 VIA     1     -57.297  -5.772  -8.761  1.00  0.00     0.034 C 
ENDBRANCH  22  23
ENDBRANCH   2  22
BRANCH   5  25
HETATM   25  S1  VIA     1     -49.436  -7.086  -9.590  1.00  0.00     0.261 S 
HETATM   26  O2  VIA     1     -49.120  -8.291 -10.327  1.00  0.00    -0.200 OA
HETATM   27  O3  VIA     1     -48.794  -5.828  -9.910  1.00  0.00    -0.200 OA
BRANCH  25  28
HETATM   28  N5  VIA     1     -49.199  -7.388  -7.942  1.00  0.00    -0.303 N 
HETATM   29  C15 VIA     1     -49.773  -6.402  -6.985  1.00  0.00     0.165 C 
HETATM   30  C16 VIA     1     -49.178  -6.621  -5.578  1.00  0.00     0.292 C 
HETATM   31  N6  VIA     1     -49.396  -8.000  -5.090  1.00  0.00     0.087 N 
HETATM   32  C17 VIA     1     -48.811  -8.959  -6.054  1.00  0.00     0.292 C 
HETATM   33  C19 VIA     1     -48.798  -8.176  -3.768  1.00  0.00     0.310 C 
HETATM   34  C18 VIA     1     -49.398  -8.788  -7.470  1.00  0.00     0.165 C 
ENDBRANCH  25  28
ENDBRANCH   5  25
TORSDOF 7
ENDMDL
