MODEL 1
REMARK VINA RESULT:    -7.133      0.000      0.000
REMARK INTER + INTRA:          -9.048
REMARK INTER:                  -9.010
REMARK INTRA:                  -0.038
REMARK UNBOUND:                -0.038
REMARK  6 active torsions:
REMARK  status: ('A' for Active; 'I' for Inactive)
REMARK    1  A    between atoms: C3_3  and  N1_4 
REMARK    2  A    between atoms: C5_6  and  C17_22 
REMARK    3  A    between atoms: C6_7  and  O1_8 
REMARK    4  A    between atoms: C10_12  and  N2_15 
REMARK    5  A    between atoms: C17_22  and  O2_23 
REMARK    6  A    between atoms: C17_22  and  O3_24 
ROOT
HETATM    1  N1  CIP     1     -41.718  -9.099  40.537  1.00  0.00     0.099 N 
HETATM    2  C4  CIP     1     -42.141 -10.245  41.392  1.00  0.00     0.285 C 
HETATM    3  C5  CIP     1     -40.989 -11.112  41.988  1.00  0.00     0.098 C 
HETATM    4  C6  CIP     1     -39.858 -10.252  42.645  1.00  0.00     0.135 C 
HETATM    5  C7  CIP     1     -40.030  -8.747  42.344  1.00  0.00     0.051 C 
HETATM    6  C8  CIP     1     -38.818  -7.891  42.800  1.00  0.00     0.049 C 
HETATM    7  C9  CIP     1     -37.926  -7.439  41.636  1.00  0.00     0.204 C 
HETATM    8  C10 CIP     1     -38.712  -6.645  40.531  1.00  0.00     0.258 C 
HETATM    9  C11 CIP     1     -40.209  -7.096  40.475  1.00  0.00     0.075 C 
HETATM   10  C12 CIP     1     -40.356  -8.585  40.839  1.00  0.00     0.232 C 
HETATM   11  F1  CIP     1     -36.874  -6.707  42.160  1.00  0.00    -0.247 F 
ENDROOT
BRANCH   8  12
HETATM   12  N2  CIP     1     -38.524  -5.168  40.693  1.00  0.00     0.099 N 
HETATM   13  C13 CIP     1     -37.875  -4.557  39.495  1.00  0.00     0.302 C 
HETATM   14  C14 CIP     1     -38.837  -3.692  38.665  1.00  0.00     0.299 C 
HETATM   15  N3  CIP     1     -39.387  -2.582  39.457  1.00  0.00     0.086 N 
HETATM   16  C15 CIP     1     -39.596  -2.918  40.878  1.00  0.00     0.299 C 
HETATM   17  H13 CIP     1     -40.309  -2.312  39.038  1.00  0.00     0.315 HD
HETATM   18  C16 CIP     1     -39.747  -4.429  41.104  1.00  0.00     0.302 C 
ENDBRANCH   8  12
BRANCH   1  19
HETATM   19  C3  CIP     1     -41.865  -9.425  39.104  1.00  0.00     0.223 A 
HETATM   20  C1  CIP     1     -41.431  -8.301  38.173  1.00  0.00     0.038 A 
HETATM   21  C2  CIP     1     -42.905  -8.585  38.371  1.00  0.00     0.038 A 
ENDBRANCH   1  19
BRANCH   4  22
HETATM   22  O1  CIP     1     -39.804 -10.474  44.034  1.00  0.00    -0.395 OA
HETATM   23  H4  CIP     1     -38.934 -10.908  44.235  1.00  0.00     0.210 HD
ENDBRANCH   4  22
BRANCH   3  24
HETATM   24  C17 CIP     1     -40.424 -12.184  41.017  1.00  0.00     0.262 C 
BRANCH  24  25
HETATM   25  O2  CIP     1     -39.453 -12.980  41.652  1.00  0.00    -0.371 OA
HETATM   26  H12 CIP     1     -39.654 -12.989  42.623  1.00  0.00     0.212 HD
ENDBRANCH  24  25
BRANCH  24  27
HETATM   27  O3  CIP     1     -41.445 -12.977  40.471  1.00  0.00    -0.371 OA
HETATM   28  H18 CIP     1     -41.624 -12.621  39.562  1.00  0.00     0.212 HD
ENDBRANCH  24  27
ENDBRANCH   3  24
TORSDOF 6
ENDMDL
