MODEL 1
REMARK VINA RESULT:    -7.995      0.000      0.000
REMARK INTER + INTRA:         -16.408
REMARK INTER:                 -13.371
REMARK INTRA:                  -3.037
REMARK UNBOUND:                -3.037
REMARK  16 active torsions:
REMARK  status: ('A' for Active; 'I' for Inactive)
REMARK    1  A    between atoms: C3_3  and  C20_33 
REMARK    2  A    between atoms: C5_7  and  N2_10 
REMARK    3  A    between atoms: C6_8  and  O1_9 
REMARK    4  A    between atoms: N2_10  and  C7_11 
REMARK    5  A    between atoms: C7_11  and  O2_12 
REMARK    6  A    between atoms: C7_11  and  C8_13 
REMARK    7  A    between atoms: C8_13  and  C9_14 
REMARK    8  A    between atoms: C8_13  and  N3_20 
REMARK    9  A    between atoms: N3_20  and  C15_21 
REMARK   10  A    between atoms: C15_21  and  O3_22 
REMARK   11  A    between atoms: C15_21  and  N4_23 
REMARK   12  A    between atoms: C18_27  and  O4_28 
REMARK   13  A    between atoms: S2_29  and  O5_30 
REMARK   14  A    between atoms: S2_29  and  O6_31 
REMARK   15  A    between atoms: C20_33  and  O7_34 
REMARK   16  A    between atoms: C20_33  and  O8_35 
ROOT
HETATM    1  C8  MEZ     1     -40.361  -5.482  43.496  1.00  0.00     0.288 C 
ENDROOT
BRANCH   1   2
HETATM    2  C7  MEZ     1     -41.629  -4.578  43.690  1.00  0.00     0.388 C 
BRANCH   2   3
HETATM    3  N2  MEZ     1     -41.337  -3.150  43.455  1.00  0.00     0.126 N 
HETATM    4  H7  MEZ     1     -41.221  -2.648  44.366  1.00  0.00     0.320 HD
BRANCH   3   5
HETATM    5  C5  MEZ     1     -42.287  -2.467  42.553  1.00  0.00     0.325 A 
HETATM    6  C4  MEZ     1     -42.629  -1.007  42.884  1.00  0.00     0.326 A 
HETATM    7  N1  MEZ     1     -41.899  -0.479  41.725  1.00  0.00     0.146 N 
HETATM    8  S1  MEZ     1     -42.013  -0.306  44.454  1.00  0.00    -0.119 SA
HETATM    9  C3  MEZ     1     -40.757   0.339  42.198  1.00  0.00     0.299 C 
HETATM   10  C6  MEZ     1     -41.606  -1.876  41.322  1.00  0.00     0.395 A 
HETATM   11  C2  MEZ     1     -41.170   1.007  43.537  1.00  0.00     0.039 C 
HETATM   12  C1  MEZ     1     -42.155   2.180  43.360  1.00  0.00     0.029 C 
HETATM   13  C21 MEZ     1     -39.960   1.464  44.374  1.00  0.00     0.029 C 
BRANCH   9  14
HETATM   14  C20 MEZ     1     -40.355   1.327  41.072  1.00  0.00     0.289 C 
BRANCH  14  15
HETATM   15  O7  MEZ     1     -41.321   1.305  40.051  1.00  0.00    -0.369 OA
HETATM   16  H18 MEZ     1     -41.585   2.248  39.891  1.00  0.00     0.212 HD
ENDBRANCH  14  15
BRANCH  14  17
HETATM   17  O8  MEZ     1     -39.096   1.011  40.537  1.00  0.00    -0.369 OA
HETATM   18  H22 MEZ     1     -39.184   1.037  39.547  1.00  0.00     0.212 HD
ENDBRANCH  14  17
ENDBRANCH   9  14
BRANCH  10  19
HETATM   19  O1  MEZ     1     -40.238  -2.194  41.233  1.00  0.00    -0.366 OA
HETATM   20  H2  MEZ     1     -39.809  -1.806  42.039  1.00  0.00     0.212 HD
ENDBRANCH  10  19
ENDBRANCH   3   5
ENDBRANCH   2   3
BRANCH   2  21
HETATM   21  O2  MEZ     1     -42.712  -4.999  42.891  1.00  0.00    -0.366 OA
HETATM   22  H4  MEZ     1     -43.306  -5.566  43.448  1.00  0.00     0.212 HD
ENDBRANCH   2  21
ENDBRANCH   1   2
BRANCH   1  23
HETATM   23  C9  MEZ     1     -40.654  -6.999  43.264  1.00  0.00     0.023 C 
HETATM   24  C10 MEZ     1     -40.343  -7.500  41.837  1.00  0.00     0.007 C 
HETATM   25  C11 MEZ     1     -40.943  -8.900  41.594  1.00  0.00     0.000 C 
HETATM   26  C12 MEZ     1     -40.991  -9.775  42.865  1.00  0.00     0.000 C 
HETATM   27  C13 MEZ     1     -39.889  -9.397  43.862  1.00  0.00     0.000 C 
HETATM   28  C14 MEZ     1     -40.015  -7.932  44.331  1.00  0.00     0.007 C 
ENDBRANCH   1  23
BRANCH   1  29
HETATM   29  N3  MEZ     1     -39.527  -5.003  42.366  1.00  0.00     0.152 N 
HETATM   30  H14 MEZ     1     -39.962  -4.210  41.840  1.00  0.00     0.322 HD
BRANCH  29  31
HETATM   31  C15 MEZ     1     -38.166  -4.616  42.774  1.00  0.00     0.600 C 
BRANCH  31  32
HETATM   32  O3  MEZ     1     -38.044  -3.214  42.715  1.00  0.00    -0.345 OA
HETATM   33  H12 MEZ     1     -37.274  -2.960  43.287  1.00  0.00     0.214 HD
ENDBRANCH  31  32
BRANCH  31  34
HETATM   34  N4  MEZ     1     -37.190  -5.221  41.846  1.00  0.00     0.198 N 
HETATM   35  C16 MEZ     1     -35.860  -4.632  41.952  1.00  0.00     0.304 C 
HETATM   36  C17 MEZ     1     -35.220  -4.853  40.597  1.00  0.00     0.168 C 
HETATM   37  N5  MEZ     1     -36.294  -5.144  39.656  1.00  0.00    -0.280 N 
HETATM   38  C18 MEZ     1     -37.535  -5.100  40.421  1.00  0.00     0.480 C 
HETATM   39  S2  MEZ     1     -35.732  -5.199  38.343  1.00  0.00     0.045 S 
HETATM   40  C19 MEZ     1     -36.216  -7.486  38.289  1.00  0.00     0.150 C 
BRANCH  38  41
HETATM   41  O4  MEZ     1     -38.185  -3.884  40.139  1.00  0.00    -0.352 OA
HETATM   42  H14 MEZ     1     -39.068  -4.111  39.746  1.00  0.00     0.214 HD
ENDBRANCH  38  41
BRANCH  39  43
HETATM   43  O5  MEZ     1     -37.928  -5.086  36.922  1.00  0.00    -0.312 OA
HETATM   44  H15 MEZ     1     -37.720  -5.445  36.023  1.00  0.00     0.230 HD
ENDBRANCH  39  43
BRANCH  39  45
HETATM   45  O6  MEZ     1     -36.180  -3.728  37.468  1.00  0.00    -0.312 OA
HETATM   46  H16 MEZ     1     -36.192  -3.718  36.478  1.00  0.00     0.230 HD
ENDBRANCH  39  45
ENDBRANCH  31  34
ENDBRANCH  29  31
ENDBRANCH   1  29
TORSDOF 16
ENDMDL
