MODEL 1
REMARK VINA RESULT:    -7.430      0.000      0.000
REMARK INTER + INTRA:         -18.152
REMARK INTER:                 -14.163
REMARK INTRA:                  -3.989
REMARK UNBOUND:                -3.989
REMARK  22 active torsions:
REMARK  status: ('A' for Active; 'I' for Inactive)
REMARK    1  A    between atoms: C2_2  and  N6_42 
REMARK    2  A    between atoms: C3_3  and  O13_41 
REMARK    3  A    between atoms: C4_4  and  O5_20 
REMARK    4  A    between atoms: C5_5  and  O1_8 
REMARK    5  A    between atoms: C6_6  and  N1_7 
REMARK    6  A    between atoms: O1_8  and  C7_9 
REMARK    7  A    between atoms: C8_10  and  N3_19 
REMARK    8  A    between atoms: C9_11  and  O4_18 
REMARK    9  A    between atoms: C10_12  and  O3_17 
REMARK   10  A    between atoms: C11_13  and  C12_15 
REMARK   11  A    between atoms: C12_15  and  N2_16 
REMARK   12  A    between atoms: O5_20  and  C13_21 
REMARK   13  A    between atoms: C14_22  and  O12_40 
REMARK   14  A    between atoms: C15_23  and  O8_28 
REMARK   15  A    between atoms: C16_24  and  C17_26 
REMARK   16  A    between atoms: C17_26  and  O7_27 
REMARK   17  A    between atoms: O8_28  and  C18_29 
REMARK   18  A    between atoms: C19_30  and  N5_39 
REMARK   19  A    between atoms: C20_31  and  O11_38 
REMARK   20  A    between atoms: C21_32  and  O10_37 
REMARK   21  A    between atoms: C22_33  and  C23_35 
REMARK   22  A    between atoms: C23_35  and  N4_36 
ROOT
HETATM    1  C1  NEO     1     -35.352  -7.432  38.510  1.00  0.00     0.076 C 
HETATM    2  C2  NEO     1     -34.897  -5.997  38.207  1.00  0.00     0.251 C 
HETATM    3  C3  NEO     1     -36.096  -5.129  37.764  1.00  0.00     0.182 C 
HETATM    4  C4  NEO     1     -37.199  -5.139  38.845  1.00  0.00     0.186 C 
HETATM    5  C5  NEO     1     -37.673  -6.579  39.141  1.00  0.00     0.189 C 
HETATM    6  C6  NEO     1     -36.465  -7.457  39.576  1.00  0.00     0.251 C 
ENDROOT
BRANCH   4   7
HETATM    7  O5  NEO     1     -38.305  -4.377  38.379  1.00  0.00    -0.348 OA
BRANCH   7   8
HETATM    8  C13 NEO     1     -38.587  -3.278  39.228  1.00  0.00     0.292 C 
HETATM    9  C14 NEO     1     -40.042  -3.328  39.669  1.00  0.00     0.205 C 
HETATM   10  C15 NEO     1     -40.001  -2.604  40.994  1.00  0.00     0.189 C 
HETATM   11  C16 NEO     1     -38.584  -2.935  41.484  1.00  0.00     0.180 C 
HETATM   12  O6  NEO     1     -37.792  -3.362  40.391  1.00  0.00    -0.348 OA
BRANCH   9  13
HETATM   13  O12 NEO     1     -40.937  -2.758  38.741  1.00  0.00    -0.388 OA
HETATM   14  H43 NEO     1     -41.840  -2.712  39.150  1.00  0.00     0.210 HD
ENDBRANCH   9  13
BRANCH  10  15
HETATM   15  O8  NEO     1     -40.086  -1.198  40.799  1.00  0.00    -0.348 OA
BRANCH  15  16
HETATM   16  C18 NEO     1     -41.034  -0.609  41.664  1.00  0.00     0.296 C 
HETATM   17  C19 NEO     1     -40.379   0.611  42.355  1.00  0.00     0.303 C 
HETATM   18  C20 NEO     1     -41.341   1.224  43.396  1.00  0.00     0.187 C 
HETATM   19  C21 NEO     1     -41.964   0.138  44.300  1.00  0.00     0.179 C 
HETATM   20  C22 NEO     1     -42.492  -1.031  43.433  1.00  0.00     0.183 C 
HETATM   21  O9  NEO     1     -41.446  -1.558  42.636  1.00  0.00    -0.349 OA
BRANCH  17  22
HETATM   22  N5  NEO     1     -39.097   0.263  42.981  1.00  0.00     0.090 N 
HETATM   23  H41 NEO     1     -39.122  -0.720  43.336  1.00  0.00     0.313 HD
HETATM   24  H42 NEO     1     -38.346   0.307  42.253  1.00  0.00     0.313 HD
ENDBRANCH  17  22
BRANCH  18  25
HETATM   25  O11 NEO     1     -42.372   1.920  42.743  1.00  0.00    -0.391 OA
HETATM   26  H40 NEO     1     -43.226   1.488  43.007  1.00  0.00     0.210 HD
ENDBRANCH  18  25
BRANCH  19  27
HETATM   27  O10 NEO     1     -41.013  -0.337  45.219  1.00  0.00    -0.390 OA
HETATM   28  H39 NEO     1     -41.236   0.067  46.096  1.00  0.00     0.210 HD
ENDBRANCH  19  27
BRANCH  20  29
HETATM   29  C23 NEO     1     -43.074  -2.180  44.286  1.00  0.00     0.301 C 
BRANCH  29  30
HETATM   30  N4  NEO     1     -42.650  -3.500  43.822  1.00  0.00     0.080 N 
HETATM   31  H37 NEO     1     -43.450  -4.168  43.899  1.00  0.00     0.312 HD
HETATM   32  H38 NEO     1     -42.361  -3.444  42.818  1.00  0.00     0.312 HD
ENDBRANCH  29  30
ENDBRANCH  20  29
ENDBRANCH  15  16
ENDBRANCH  10  15
BRANCH  11  33
HETATM   33  C17 NEO     1     -38.576  -4.013  42.583  1.00  0.00     0.198 C 
BRANCH  33  34
HETATM   34  O7  NEO     1     -39.591  -3.784  43.525  1.00  0.00    -0.398 OA
HETATM   35  H29 NEO     1     -40.440  -3.690  43.019  1.00  0.00     0.209 HD
ENDBRANCH  33  34
ENDBRANCH  11  33
ENDBRANCH   7   8
ENDBRANCH   4   7
BRANCH   3  36
HETATM   36  O13 NEO     1     -35.656  -3.812  37.553  1.00  0.00    -0.391 OA
HETATM   37  H44 NEO     1     -34.765  -3.867  37.117  1.00  0.00     0.210 HD
ENDBRANCH   3  36
BRANCH   5  38
HETATM   38  O1  NEO     1     -38.625  -6.493  40.191  1.00  0.00    -0.349 OA
BRANCH  38  39
HETATM   39  C7  NEO     1     -39.602  -7.528  40.158  1.00  0.00     0.296 C 
HETATM   40  C8  NEO     1     -41.020  -6.927  40.144  1.00  0.00     0.303 C 
HETATM   41  C9  NEO     1     -41.283  -6.185  41.469  1.00  0.00     0.187 C 
HETATM   42  C10 NEO     1     -40.953  -7.086  42.677  1.00  0.00     0.179 C 
HETATM   43  C11 NEO     1     -39.539  -7.700  42.510  1.00  0.00     0.183 C 
HETATM   44  O2  NEO     1     -39.449  -8.394  41.272  1.00  0.00    -0.349 OA
BRANCH  40  45
HETATM   45  N3  NEO     1     -41.172  -6.017  39.007  1.00  0.00     0.090 N 
HETATM   46  H21 NEO     1     -41.253  -6.588  38.133  1.00  0.00     0.313 HD
HETATM   47  H22 NEO     1     -42.086  -5.520  39.106  1.00  0.00     0.313 HD
ENDBRANCH  40  45
BRANCH  41  48
HETATM   48  O4  NEO     1     -42.613  -5.729  41.533  1.00  0.00    -0.391 OA
HETATM   49  H20 NEO     1     -42.749  -5.325  42.429  1.00  0.00     0.210 HD
ENDBRANCH  41  48
BRANCH  42  50
HETATM   50  O3  NEO     1     -41.010  -6.315  43.849  1.00  0.00    -0.390 OA
HETATM   51  H19 NEO     1     -41.287  -5.400  43.580  1.00  0.00     0.210 HD
ENDBRANCH  42  50
BRANCH  43  52
HETATM   52  C12 NEO     1     -39.213  -8.720  43.627  1.00  0.00     0.301 C 
BRANCH  52  53
HETATM   53  N2  NEO     1     -40.403  -9.243  44.300  1.00  0.00     0.080 N 
HETATM   54  H17 NEO     1     -40.435  -8.895  45.282  1.00  0.00     0.312 HD
HETATM   55  H18 NEO     1     -40.377 -10.289  44.315  1.00  0.00     0.312 HD
ENDBRANCH  52  53
ENDBRANCH  43  52
ENDBRANCH  38  39
ENDBRANCH   5  38
BRANCH   2  56
HETATM   56  N6  NEO     1     -33.854  -6.026  37.177  1.00  0.00     0.085 N 
HETATM   57  H45 NEO     1     -32.978  -5.598  37.559  1.00  0.00     0.313 HD
HETATM   58  H46 NEO     1     -33.635  -7.022  36.936  1.00  0.00     0.313 HD
ENDBRANCH   2  56
BRANCH   6  59
HETATM   59  N1  NEO     1     -36.886  -8.837  39.830  1.00  0.00     0.085 N 
HETATM   60  H8  NEO     1     -36.375  -9.480  39.183  1.00  0.00     0.313 HD
HETATM   61  H9  NEO     1     -36.622  -9.100  40.808  1.00  0.00     0.313 HD
ENDBRANCH   6  59
TORSDOF 22
ENDMDL
