MODEL 1
REMARK VINA RESULT:    -6.818      0.000      0.000
REMARK INTER + INTRA:          -9.225
REMARK INTER:                  -8.611
REMARK INTRA:                  -0.613
REMARK UNBOUND:                -0.613
REMARK  6 active torsions:
REMARK  status: ('A' for Active; 'I' for Inactive)
REMARK    1  A    between atoms: C2_2  and  N1_3 
REMARK    2  A    between atoms: C4_5  and  C16_21 
REMARK    3  A    between atoms: C5_6  and  O1_7 
REMARK    4  A    between atoms: C9_11  and  N2_14 
REMARK    5  A    between atoms: C16_21  and  O2_22 
REMARK    6  A    between atoms: C16_21  and  O3_23 
ROOT
HETATM    1  N1  NOR     1      11.671   4.866   6.904  1.00  0.00     0.093 N 
HETATM    2  C3  NOR     1      10.441   4.737   7.732  1.00  0.00     0.284 C 
HETATM    3  C4  NOR     1      10.661   4.114   9.142  1.00  0.00     0.098 C 
HETATM    4  C5  NOR     1      11.858   4.751   9.924  1.00  0.00     0.135 C 
HETATM    5  C6  NOR     1      12.665   5.721   9.039  1.00  0.00     0.051 C 
HETATM    6  C7  NOR     1      13.961   6.234   9.734  1.00  0.00     0.049 C 
HETATM    7  C8  NOR     1      15.260   5.697   9.105  1.00  0.00     0.204 C 
HETATM    8  C9  NOR     1      15.325   5.873   7.557  1.00  0.00     0.258 C 
HETATM    9  C10 NOR     1      13.924   5.916   6.883  1.00  0.00     0.075 C 
HETATM   10  C11 NOR     1      12.929   5.047   7.671  1.00  0.00     0.231 C 
HETATM   11  F1  NOR     1      16.357   6.277   9.721  1.00  0.00    -0.247 F 
ENDROOT
BRANCH   8  12
HETATM   12  N2  NOR     1      16.237   6.976   7.141  1.00  0.00     0.099 N 
HETATM   13  C12 NOR     1      17.577   6.481   6.768  1.00  0.00     0.302 C 
HETATM   14  C13 NOR     1      18.532   7.665   6.570  1.00  0.00     0.299 C 
HETATM   15  N3  NOR     1      18.020   8.593   5.553  1.00  0.00     0.086 N 
HETATM   16  C14 NOR     1      16.671   9.057   5.903  1.00  0.00     0.299 C 
HETATM   17  H13 NOR     1      17.978   8.096   4.632  1.00  0.00     0.315 HD
HETATM   18  C15 NOR     1      15.712   7.876   6.093  1.00  0.00     0.302 C 
ENDBRANCH   8  12
BRANCH   1  19
HETATM   19  C2  NOR     1      11.768   3.812   5.869  1.00  0.00     0.268 C 
HETATM   20  C1  NOR     1      10.399   3.585   5.238  1.00  0.00     0.037 C 
ENDBRANCH   1  19
BRANCH   4  21
HETATM   21  O1  NOR     1      11.381   5.448  11.047  1.00  0.00    -0.395 OA
HETATM   22  H4  NOR     1      11.827   5.050  11.840  1.00  0.00     0.210 HD
ENDBRANCH   4  21
BRANCH   3  23
HETATM   23  C16 NOR     1      10.725   2.566   9.106  1.00  0.00     0.262 C 
BRANCH  23  24
HETATM   24  O2  NOR     1      10.014   2.033  10.195  1.00  0.00    -0.371 OA
HETATM   25  H12 NOR     1       9.279   2.670  10.398  1.00  0.00     0.212 HD
ENDBRANCH  23  24
BRANCH  23  26
HETATM   26  O3  NOR     1      12.053   2.124   9.171  1.00  0.00    -0.371 OA
HETATM   27  H18 NOR     1      12.031   1.144   9.017  1.00  0.00     0.212 HD
ENDBRANCH  23  26
ENDBRANCH   3  23
TORSDOF 6
ENDMDL
