MODEL 1
REMARK VINA RESULT:    -6.186      0.000      0.000
REMARK INTER + INTRA:          -9.603
REMARK INTER:                  -8.717
REMARK INTRA:                  -0.886
REMARK UNBOUND:                -0.886
REMARK  9 active torsions:
REMARK  status: ('A' for Active; 'I' for Inactive)
REMARK    1  A    between atoms: C3_3  and  C15_20 
REMARK    2  A    between atoms: C5_7  and  N2_10 
REMARK    3  A    between atoms: C6_8  and  O1_9 
REMARK    4  A    between atoms: N2_10  and  C7_11 
REMARK    5  A    between atoms: C7_11  and  O2_12 
REMARK    6  A    between atoms: C7_11  and  C8_13 
REMARK    7  A    between atoms: C8_13  and  C9_14 
REMARK    8  A    between atoms: C15_20  and  O3_21 
REMARK    9  A    between atoms: C15_20  and  O4_22 
ROOT
HETATM    1  C1  PEN     1     -43.670   2.012  42.363  1.00  0.00     0.029 C 
HETATM    2  C2  PEN     1     -42.360   1.279  42.731  1.00  0.00     0.039 C 
HETATM    3  C3  PEN     1     -41.022   1.966  42.258  1.00  0.00     0.299 C 
HETATM    4  N1  PEN     1     -40.156   1.018  41.522  1.00  0.00     0.146 N 
HETATM    5  C4  PEN     1     -40.815  -0.253  41.223  1.00  0.00     0.326 A 
HETATM    6  S1  PEN     1     -42.464  -0.372  41.981  1.00  0.00    -0.119 SA
HETATM    7  C5  PEN     1     -39.715  -1.080  41.898  1.00  0.00     0.325 A 
HETATM    8  C6  PEN     1     -39.113   0.280  42.269  1.00  0.00     0.395 A 
HETATM    9  C16 PEN     1     -42.353   1.106  44.264  1.00  0.00     0.029 C 
ENDROOT
BRANCH   7  10
HETATM   10  N2  PEN     1     -40.170  -1.931  43.019  1.00  0.00     0.124 N 
HETATM   11  H7  PEN     1     -39.729  -1.635  43.917  1.00  0.00     0.320 HD
BRANCH  10  12
HETATM   12  C7  PEN     1     -39.881  -3.354  42.768  1.00  0.00     0.354 C 
BRANCH  12  13
HETATM   13  O2  PEN     1     -39.820  -4.047  43.989  1.00  0.00    -0.368 OA
HETATM   14  H4  PEN     1     -39.326  -3.465  44.624  1.00  0.00     0.212 HD
ENDBRANCH  12  13
BRANCH  12  15
HETATM   15  C8  PEN     1     -41.007  -3.959  41.910  1.00  0.00     0.068 C 
BRANCH  15  16
HETATM   16  C9  PEN     1     -40.559  -4.309  40.472  1.00  0.00    -0.010 C 
HETATM   17  C10 PEN     1     -41.289  -3.415  39.451  1.00  0.00     0.005 C 
HETATM   18  C11 PEN     1     -40.966  -3.822  37.999  1.00  0.00     0.000 C 
HETATM   19  C12 PEN     1     -39.561  -4.435  37.830  1.00  0.00     0.000 C 
HETATM   20  C13 PEN     1     -38.576  -3.876  38.859  1.00  0.00     0.000 C 
HETATM   21  C14 PEN     1     -39.018  -4.194  40.302  1.00  0.00     0.005 C 
ENDBRANCH  15  16
ENDBRANCH  12  15
ENDBRANCH  10  12
ENDBRANCH   7  10
BRANCH   8  22
HETATM   22  O1  PEN     1     -39.109   0.545  43.649  1.00  0.00    -0.366 OA
HETATM   23  H2  PEN     1     -39.225  -0.331  44.100  1.00  0.00     0.212 HD
ENDBRANCH   8  22
BRANCH   3  24
HETATM   24  C15 PEN     1     -41.152   3.222  41.363  1.00  0.00     0.289 C 
BRANCH  24  25
HETATM   25  O3  PEN     1     -41.172   4.389  42.144  1.00  0.00    -0.369 OA
HETATM   26  H12 PEN     1     -41.556   4.139  43.023  1.00  0.00     0.212 HD
ENDBRANCH  24  25
BRANCH  24  27
HETATM   27  O4  PEN     1     -40.113   3.275  40.421  1.00  0.00    -0.369 OA
HETATM   28  H15 PEN     1     -39.618   4.119  40.587  1.00  0.00     0.212 HD
ENDBRANCH  24  27
ENDBRANCH   3  24
TORSDOF 9
ENDMDL
