MODEL 1
REMARK VINA RESULT:    -8.023      0.000      0.000
REMARK INTER + INTRA:         -18.368
REMARK INTER:                 -14.121
REMARK INTRA:                  -4.247
REMARK UNBOUND:                -4.247
REMARK  17 active torsions:
REMARK  status: ('A' for Active; 'I' for Inactive)
REMARK    1  A    between atoms: C3_3  and  C21_38 
REMARK    2  A    between atoms: C3_3  and  O12_40 
REMARK    3  A    between atoms: C4_4  and  O6_25 
REMARK    4  A    between atoms: C5_5  and  O2_7 
REMARK    5  A    between atoms: O2_7  and  C6_8 
REMARK    6  A    between atoms: C7_9  and  N4_21 
REMARK    7  A    between atoms: C8_10  and  O5_20 
REMARK    8  A    between atoms: C9_11  and  N1_16 
REMARK    9  A    between atoms: C10_12  and  O4_15 
REMARK   10  A    between atoms: C11_13  and  O3_14 
REMARK       I    between atoms: N1_16  and  C12_17 
REMARK       I    between atoms: C12_17  and  N2_18 
REMARK       I    between atoms: C12_17  and  N3_19 
REMARK       I    between atoms: N4_21  and  C13_22 
REMARK       I    between atoms: C13_22  and  N5_23 
REMARK       I    between atoms: C13_22  and  N6_24 
REMARK   11  A    between atoms: O6_25  and  C14_26 
REMARK   12  A    between atoms: C15_27  and  N7_36 
REMARK   13  A    between atoms: C16_28  and  O10_35 
REMARK   14  A    between atoms: C17_29  and  O9_34 
REMARK   15  A    between atoms: C18_30  and  C19_32 
REMARK   16  A    between atoms: C19_32  and  O8_33 
REMARK   17  A    between atoms: C21_38  and  O11_39 
ROOT
HETATM    1  C6  STM     1     -40.907  -4.006  43.026  1.00  0.00     0.192 C 
HETATM    2  C7  STM     1     -40.036  -2.723  42.940  1.00  0.00     0.287 C 
HETATM    3  C8  STM     1     -40.911  -1.451  42.772  1.00  0.00     0.190 C 
HETATM    4  C9  STM     1     -41.960  -1.357  43.920  1.00  0.00     0.287 C 
HETATM    5  C10 STM     1     -42.813  -2.646  44.036  1.00  0.00     0.185 C 
HETATM    6  C11 STM     1     -41.908  -3.886  44.204  1.00  0.00     0.180 C 
ENDROOT
BRANCH   1   7
HETATM    7  O2  STM     1     -40.041  -5.117  43.225  1.00  0.00    -0.348 OA
BRANCH   7   8
HETATM    8  C5  STM     1     -40.200  -6.128  42.237  1.00  0.00     0.293 C 
HETATM    9  C4  STM     1     -38.825  -6.636  41.798  1.00  0.00     0.218 C 
HETATM   10  C3  STM     1     -38.569  -7.827  42.728  1.00  0.00     0.135 C 
HETATM   11  C2  STM     1     -39.968  -8.083  43.364  1.00  0.00     0.160 C 
HETATM   12  C1  STM     1     -40.492  -9.515  43.203  1.00  0.00     0.043 C 
HETATM   13  O1  STM     1     -40.906  -7.207  42.792  1.00  0.00    -0.350 OA
BRANCH   9  14
HETATM   14  O6  STM     1     -38.881  -7.064  40.442  1.00  0.00    -0.346 OA
BRANCH  14  15
HETATM   15  C14 STM     1     -37.909  -6.411  39.629  1.00  0.00     0.297 C 
HETATM   16  C15 STM     1     -38.587  -5.806  38.364  1.00  0.00     0.305 C 
HETATM   17  C16 STM     1     -37.671  -4.768  37.653  1.00  0.00     0.187 C 
HETATM   18  C17 STM     1     -36.213  -4.881  38.156  1.00  0.00     0.180 C 
HETATM   19  C18 STM     1     -36.156  -4.826  39.721  1.00  0.00     0.179 C 
HETATM   20  O7  STM     1     -37.296  -5.384  40.383  1.00  0.00    -0.349 OA
BRANCH  16  21
HETATM   21  N7  STM     1     -39.939  -5.238  38.615  1.00  0.00     0.091 N 
HETATM   22  C20 STM     1     -40.002  -3.766  38.649  1.00  0.00     0.307 C 
HETATM   23  H34 STM     1     -40.291  -5.596  39.530  1.00  0.00     0.316 HD
ENDBRANCH  16  21
BRANCH  17  24
HETATM   24  O10 STM     1     -37.719  -4.984  36.264  1.00  0.00    -0.391 OA
HETATM   25  H33 STM     1     -36.789  -4.909  35.927  1.00  0.00     0.210 HD
ENDBRANCH  17  24
BRANCH  18  26
HETATM   26  O9  STM     1     -35.396  -3.881  37.597  1.00  0.00    -0.390 OA
HETATM   27  H32 STM     1     -35.937  -3.058  37.502  1.00  0.00     0.210 HD
ENDBRANCH  18  26
BRANCH  19  28
HETATM   28  C19 STM     1     -34.868  -5.479  40.256  1.00  0.00     0.198 C 
BRANCH  28  29
HETATM   29  O8  STM     1     -34.561  -4.978  41.529  1.00  0.00    -0.398 OA
HETATM   30  H31 STM     1     -34.600  -5.744  42.165  1.00  0.00     0.209 HD
ENDBRANCH  28  29
ENDBRANCH  19  28
ENDBRANCH  14  15
ENDBRANCH   9  14
BRANCH  10  31
HETATM   31  C21 STM     1     -37.510  -7.483  43.811  1.00  0.00     0.207 C 
BRANCH  31  32
HETATM   32  O11 STM     1     -36.434  -6.769  43.264  1.00  0.00    -0.398 OA
HETATM   33  H6  STM     1     -35.953  -7.411  42.673  1.00  0.00     0.209 HD
ENDBRANCH  31  32
ENDBRANCH  10  31
BRANCH  10  34
HETATM   34  O12 STM     1     -38.105  -8.926  41.967  1.00  0.00    -0.382 OA
HETATM   35  H39 STM     1     -37.298  -9.291  42.404  1.00  0.00     0.210 HD
ENDBRANCH  10  34
ENDBRANCH   7   8
ENDBRANCH   1   7
BRANCH   2  36
HETATM   36  N4  STM     1     -38.951  -2.842  41.931  1.00  0.00     0.156 N 
HETATM   37  C13 STM     1     -37.566  -2.779  42.432  1.00  0.00     0.674 C 
HETATM   38  N5  STM     1     -36.672  -2.435  41.321  1.00  0.00     0.142 N 
HETATM   39  N6  STM     1     -37.167  -4.068  43.016  1.00  0.00     0.142 N 
HETATM   40  H20 STM     1     -35.724  -2.211  41.712  1.00  0.00     0.318 HD
HETATM   41  H21 STM     1     -37.023  -1.557  40.870  1.00  0.00     0.318 HD
HETATM   42  H22 STM     1     -36.606  -3.881  43.889  1.00  0.00     0.318 HD
HETATM   43  H23 STM     1     -36.541  -4.599  42.360  1.00  0.00     0.318 HD
HETATM   44  H3  STM     1     -39.078  -3.725  41.382  1.00  0.00     0.321 HD
ENDBRANCH   2  36
BRANCH   6  45
HETATM   45  O3  STM     1     -42.717  -5.033  44.253  1.00  0.00    -0.390 OA
HETATM   46  H13 STM     1     -43.614  -4.762  43.933  1.00  0.00     0.210 HD
ENDBRANCH   6  45
BRANCH   3  47
HETATM   47  O5  STM     1     -40.103  -0.298  42.753  1.00  0.00    -0.391 OA
HETATM   48  H19 STM     1     -39.317  -0.481  42.173  1.00  0.00     0.210 HD
ENDBRANCH   3  47
BRANCH   5  49
HETATM   49  O4  STM     1     -43.669  -2.564  45.147  1.00  0.00    -0.391 OA
HETATM   50  H14 STM     1     -43.528  -1.670  45.564  1.00  0.00     0.210 HD
ENDBRANCH   5  49
BRANCH   4  51
HETATM   51  N1  STM     1     -42.814  -0.143  43.885  1.00  0.00     0.156 N 
HETATM   52  C12 STM     1     -42.789   0.812  45.016  1.00  0.00     0.674 C 
HETATM   53  N2  STM     1     -41.423   1.131  45.429  1.00  0.00     0.142 N 
HETATM   54  N3  STM     1     -43.556   0.307  46.155  1.00  0.00     0.142 N 
HETATM   55  H15 STM     1     -41.466   1.804  46.234  1.00  0.00     0.318 HD
HETATM   56  H16 STM     1     -40.961   1.662  44.652  1.00  0.00     0.318 HD
HETATM   57  H17 STM     1     -43.592   1.053  46.882  1.00  0.00     0.318 HD
HETATM   58  H18 STM     1     -44.546   0.173  45.846  1.00  0.00     0.318 HD
HETATM   59  H1  STM     1     -43.803  -0.418  43.687  1.00  0.00     0.321 HD
ENDBRANCH   4  51
TORSDOF 17
ENDMDL
