MODEL 1
REMARK VINA RESULT:    -7.624      0.000      0.000
REMARK INTER + INTRA:         -14.218
REMARK INTER:                 -12.526
REMARK INTRA:                  -1.691
REMARK UNBOUND:                -1.691
REMARK  16 active torsions:
REMARK  status: ('A' for Active; 'I' for Inactive)
REMARK    1  A    between atoms: C2_2  and  N5_32 
REMARK    2  A    between atoms: C3_3  and  O7_21 
REMARK    3  A    between atoms: C4_4  and  O6_20 
REMARK    4  A    between atoms: C5_5  and  O1_8 
REMARK    5  A    between atoms: C6_6  and  N1_7 
REMARK    6  A    between atoms: O1_8  and  C7_9 
REMARK    7  A    between atoms: C8_10  and  O5_19 
REMARK    8  A    between atoms: C9_11  and  N2_18 
REMARK    9  A    between atoms: C10_12  and  O4_17 
REMARK   10  A    between atoms: C11_13  and  C12_15 
REMARK   11  A    between atoms: C12_15  and  O3_16 
REMARK   12  A    between atoms: O7_21  and  C13_22 
REMARK   13  A    between atoms: C14_23  and  N4_31 
REMARK   14  A    between atoms: C16_25  and  O9_30 
REMARK   15  A    between atoms: C17_26  and  C18_28 
REMARK   16  A    between atoms: C18_28  and  N3_29 
ROOT
HETATM    1  C1  TOB     1     -40.497  -5.585  40.475  1.00  0.00     0.076 C 
HETATM    2  C2  TOB     1     -41.679  -4.626  40.200  1.00  0.00     0.251 C 
HETATM    3  C3  TOB     1     -41.236  -3.274  39.582  1.00  0.00     0.189 C 
HETATM    4  C4  TOB     1     -40.271  -3.456  38.389  1.00  0.00     0.180 C 
HETATM    5  C5  TOB     1     -39.038  -4.334  38.746  1.00  0.00     0.189 C 
HETATM    6  C6  TOB     1     -39.433  -5.699  39.355  1.00  0.00     0.251 C 
ENDROOT
BRANCH   5   7
HETATM    7  O1  TOB     1     -38.205  -3.664  39.682  1.00  0.00    -0.348 OA
BRANCH   7   8
HETATM    8  C7  TOB     1     -37.229  -4.515  40.268  1.00  0.00     0.291 C 
HETATM    9  C8  TOB     1     -36.784  -3.912  41.624  1.00  0.00     0.208 C 
HETATM   10  C9  TOB     1     -35.393  -4.449  42.070  1.00  0.00     0.282 C 
HETATM   11  C10 TOB     1     -35.058  -5.763  41.344  1.00  0.00     0.184 C 
HETATM   12  C11 TOB     1     -35.129  -5.526  39.808  1.00  0.00     0.179 C 
HETATM   13  O2  TOB     1     -36.124  -4.595  39.385  1.00  0.00    -0.349 OA
BRANCH   9  14
HETATM   14  O5  TOB     1     -36.769  -2.505  41.582  1.00  0.00    -0.388 OA
HETATM   15  H21 TOB     1     -37.307  -2.223  40.797  1.00  0.00     0.210 HD
ENDBRANCH   9  14
BRANCH  10  16
HETATM   16  N2  TOB     1     -35.335  -4.635  43.522  1.00  0.00     0.088 N 
HETATM   17  H19 TOB     1     -36.314  -4.692  43.890  1.00  0.00     0.313 HD
HETATM   18  H20 TOB     1     -34.865  -5.544  43.739  1.00  0.00     0.313 HD
ENDBRANCH  10  16
BRANCH  11  19
HETATM   19  O4  TOB     1     -33.765  -6.194  41.688  1.00  0.00    -0.391 OA
HETATM   20  H18 TOB     1     -33.370  -6.607  40.876  1.00  0.00     0.210 HD
ENDBRANCH  11  19
BRANCH  12  21
HETATM   21  C12 TOB     1     -35.243  -6.834  39.009  1.00  0.00     0.198 C 
BRANCH  21  22
HETATM   22  O3  TOB     1     -34.538  -7.876  39.629  1.00  0.00    -0.398 OA
HETATM   23  H17 TOB     1     -33.936  -8.269  38.945  1.00  0.00     0.209 HD
ENDBRANCH  21  22
ENDBRANCH  12  21
ENDBRANCH   7   8
ENDBRANCH   5   7
BRANCH   4  24
HETATM   24  O6  TOB     1     -40.959  -3.980  37.283  1.00  0.00    -0.390 OA
HETATM   25  H22 TOB     1     -41.438  -4.791  37.597  1.00  0.00     0.210 HD
ENDBRANCH   4  24
BRANCH   6  26
HETATM   26  N1  TOB     1     -39.786  -6.679  38.321  1.00  0.00     0.085 N 
HETATM   27  H8  TOB     1     -40.749  -7.043  38.500  1.00  0.00     0.313 HD
HETATM   28  H9  TOB     1     -39.775  -6.255  37.372  1.00  0.00     0.313 HD
ENDBRANCH   6  26
BRANCH   3  29
HETATM   29  O7  TOB     1     -40.580  -2.471  40.556  1.00  0.00    -0.349 OA
BRANCH  29  30
HETATM   30  C13 TOB     1     -41.435  -2.061  41.616  1.00  0.00     0.293 C 
HETATM   31  C14 TOB     1     -41.922  -0.615  41.356  1.00  0.00     0.275 C 
HETATM   32  C15 TOB     1     -42.374   0.069  42.671  1.00  0.00     0.074 C 
HETATM   33  C16 TOB     1     -42.754  -0.965  43.739  1.00  0.00     0.151 C 
HETATM   34  C17 TOB     1     -41.562  -1.945  43.970  1.00  0.00     0.181 C 
HETATM   35  O8  TOB     1     -40.712  -2.095  42.834  1.00  0.00    -0.349 OA
BRANCH  31  36
HETATM   36  N4  TOB     1     -40.882   0.178  40.695  1.00  0.00     0.087 N 
HETATM   37  H34 TOB     1     -40.611  -0.298  39.803  1.00  0.00     0.313 HD
HETATM   38  H35 TOB     1     -41.263   1.121  40.451  1.00  0.00     0.313 HD
ENDBRANCH  31  36
BRANCH  33  39
HETATM   39  O9  TOB     1     -43.073  -0.311  44.940  1.00  0.00    -0.393 OA
HETATM   40  H33 TOB     1     -43.533  -0.976  45.516  1.00  0.00     0.210 HD
ENDBRANCH  33  39
BRANCH  34  41
HETATM   41  C18 TOB     1     -42.016  -3.337  44.465  1.00  0.00     0.301 C 
BRANCH  41  42
HETATM   42  N3  TOB     1     -43.084  -3.257  45.461  1.00  0.00     0.080 N 
HETATM   43  H31 TOB     1     -42.902  -2.451  46.102  1.00  0.00     0.312 HD
HETATM   44  H32 TOB     1     -43.995  -3.091  44.977  1.00  0.00     0.312 HD
ENDBRANCH  41  42
ENDBRANCH  34  41
ENDBRANCH  29  30
ENDBRANCH   3  29
BRANCH   2  45
HETATM   45  N5  TOB     1     -42.757  -5.249  39.424  1.00  0.00     0.085 N 
HETATM   46  H36 TOB     1     -42.455  -5.456  38.451  1.00  0.00     0.313 HD
HETATM   47  H37 TOB     1     -43.017  -6.158  39.871  1.00  0.00     0.313 HD
ENDBRANCH   2  45
TORSDOF 16
ENDMDL
