MODEL 1
REMARK VINA RESULT:    -6.940      0.000      0.000
REMARK INTER + INTRA:         -15.694
REMARK INTER:                 -12.214
REMARK INTRA:                  -3.481
REMARK UNBOUND:                -3.481
REMARK  17 active torsions:
REMARK  status: ('A' for Active; 'I' for Inactive)
REMARK    1  A    between atoms: C3_3  and  C21_38 
REMARK    2  A    between atoms: C3_3  and  O12_40 
REMARK    3  A    between atoms: C4_4  and  O6_25 
REMARK    4  A    between atoms: C5_5  and  O2_7 
REMARK    5  A    between atoms: O2_7  and  C6_8 
REMARK    6  A    between atoms: C7_9  and  N4_21 
REMARK    7  A    between atoms: C8_10  and  O5_20 
REMARK    8  A    between atoms: C9_11  and  N1_16 
REMARK    9  A    between atoms: C10_12  and  O4_15 
REMARK   10  A    between atoms: C11_13  and  O3_14 
REMARK       I    between atoms: N1_16  and  C12_17 
REMARK       I    between atoms: C12_17  and  N2_18 
REMARK       I    between atoms: C12_17  and  N3_19 
REMARK       I    between atoms: N4_21  and  C13_22 
REMARK       I    between atoms: C13_22  and  N5_23 
REMARK       I    between atoms: C13_22  and  N6_24 
REMARK   11  A    between atoms: O6_25  and  C14_26 
REMARK   12  A    between atoms: C15_27  and  N7_36 
REMARK   13  A    between atoms: C16_28  and  O10_35 
REMARK   14  A    between atoms: C17_29  and  O9_34 
REMARK   15  A    between atoms: C18_30  and  C19_32 
REMARK   16  A    between atoms: C19_32  and  O8_33 
REMARK   17  A    between atoms: C21_38  and  O11_39 
ROOT
HETATM    1  C6  STM     1     -31.555  -4.744 -10.987  1.00  0.00     0.192 C 
HETATM    2  C7  STM     1     -31.679  -6.251 -11.343  1.00  0.00     0.287 C 
HETATM    3  C8  STM     1     -30.478  -6.735 -12.201  1.00  0.00     0.190 C 
HETATM    4  C9  STM     1     -29.134  -6.424 -11.479  1.00  0.00     0.287 C 
HETATM    5  C10 STM     1     -29.014  -4.928 -11.090  1.00  0.00     0.185 C 
HETATM    6  C11 STM     1     -30.223  -4.487 -10.237  1.00  0.00     0.180 C 
ENDROOT
BRANCH   1   7
HETATM    7  O2  STM     1     -32.661  -4.391 -10.167  1.00  0.00    -0.348 OA
BRANCH   7   8
HETATM    8  C5  STM     1     -32.804  -5.236  -9.031  1.00  0.00     0.293 C 
HETATM    9  C4  STM     1     -32.584  -4.423  -7.755  1.00  0.00     0.218 C 
HETATM   10  C3  STM     1     -33.996  -3.963  -7.374  1.00  0.00     0.135 C 
HETATM   11  C2  STM     1     -34.908  -4.846  -8.277  1.00  0.00     0.160 C 
HETATM   12  C1  STM     1     -35.972  -5.650  -7.521  1.00  0.00     0.043 C 
HETATM   13  O1  STM     1     -34.111  -5.750  -9.002  1.00  0.00    -0.350 OA
BRANCH   9  14
HETATM   14  O6  STM     1     -32.040  -5.260  -6.741  1.00  0.00    -0.346 OA
BRANCH  14  15
HETATM   15  C14 STM     1     -30.960  -4.637  -6.048  1.00  0.00     0.297 C 
HETATM   16  C15 STM     1     -29.881  -5.697  -5.675  1.00  0.00     0.305 C 
HETATM   17  C16 STM     1     -28.530  -5.035  -5.277  1.00  0.00     0.187 C 
HETATM   18  C17 STM     1     -28.714  -3.525  -4.996  1.00  0.00     0.180 C 
HETATM   19  C18 STM     1     -29.450  -2.821  -6.187  1.00  0.00     0.179 C 
HETATM   20  O7  STM     1     -30.392  -3.646  -6.881  1.00  0.00    -0.349 OA
BRANCH  16  21
HETATM   21  N7  STM     1     -29.676  -6.743  -6.712  1.00  0.00     0.091 N 
HETATM   22  C20 STM     1     -28.460  -6.583  -7.530  1.00  0.00     0.307 C 
HETATM   23  H34 STM     1     -30.498  -6.747  -7.355  1.00  0.00     0.316 HD
ENDBRANCH  16  21
BRANCH  17  24
HETATM   24  O10 STM     1     -28.019  -5.677  -4.135  1.00  0.00    -0.391 OA
HETATM   25  H33 STM     1     -27.249  -5.138  -3.818  1.00  0.00     0.210 HD
ENDBRANCH  17  24
BRANCH  18  26
HETATM   26  O9  STM     1     -27.484  -2.896  -4.736  1.00  0.00    -0.390 OA
HETATM   27  H32 STM     1     -27.608  -1.920  -4.838  1.00  0.00     0.210 HD
ENDBRANCH  18  26
BRANCH  19  28
HETATM   28  C19 STM     1     -30.133  -1.519  -5.730  1.00  0.00     0.198 C 
BRANCH  28  29
HETATM   29  O8  STM     1     -30.430  -0.711  -6.836  1.00  0.00    -0.398 OA
HETATM   30  H31 STM     1     -30.066   0.196  -6.646  1.00  0.00     0.209 HD
ENDBRANCH  28  29
ENDBRANCH  19  28
ENDBRANCH  14  15
ENDBRANCH   9  14
BRANCH  10  31
HETATM   31  C21 STM     1     -34.198  -2.452  -7.670  1.00  0.00     0.207 C 
BRANCH  31  32
HETATM   32  O11 STM     1     -32.976  -1.765  -7.677  1.00  0.00    -0.398 OA
HETATM   33  H6  STM     1     -32.862  -1.420  -8.604  1.00  0.00     0.209 HD
ENDBRANCH  31  32
ENDBRANCH  10  31
BRANCH  10  34
HETATM   34  O12 STM     1     -34.207  -4.192  -5.993  1.00  0.00    -0.382 OA
HETATM   35  H39 STM     1     -33.586  -4.900  -5.695  1.00  0.00     0.210 HD
ENDBRANCH  10  34
ENDBRANCH   7   8
ENDBRANCH   1   7
BRANCH   2  36
HETATM   36  N4  STM     1     -33.005  -6.589 -11.922  1.00  0.00     0.156 N 
HETATM   37  C13 STM     1     -33.423  -5.834 -13.117  1.00  0.00     0.674 C 
HETATM   38  N5  STM     1     -34.879  -5.937 -13.262  1.00  0.00     0.142 N 
HETATM   39  N6  STM     1     -32.761  -6.358 -14.320  1.00  0.00     0.142 N 
HETATM   40  H20 STM     1     -35.191  -5.254 -13.995  1.00  0.00     0.318 HD
HETATM   41  H21 STM     1     -35.327  -5.635 -12.365  1.00  0.00     0.318 HD
HETATM   42  H22 STM     1     -32.480  -5.545 -14.930  1.00  0.00     0.318 HD
HETATM   43  H23 STM     1     -33.422  -6.949 -14.885  1.00  0.00     0.318 HD
HETATM   44  H3  STM     1     -33.044  -7.615 -12.134  1.00  0.00     0.321 HD
ENDBRANCH   2  36
BRANCH   6  45
HETATM   45  O3  STM     1     -30.100  -3.118  -9.952  1.00  0.00    -0.390 OA
HETATM   46  H13 STM     1     -30.391  -2.631 -10.764  1.00  0.00     0.210 HD
ENDBRANCH   6  45
BRANCH   3  47
HETATM   47  O5  STM     1     -30.585  -8.114 -12.462  1.00  0.00    -0.391 OA
HETATM   48  H19 STM     1     -29.808  -8.385 -13.019  1.00  0.00     0.210 HD
ENDBRANCH   3  47
BRANCH   5  49
HETATM   49  O4  STM     1     -27.840  -4.711 -10.348  1.00  0.00    -0.391 OA
HETATM   50  H14 STM     1     -27.461  -3.838 -10.646  1.00  0.00     0.210 HD
ENDBRANCH   5  49
BRANCH   4  51
HETATM   51  N1  STM     1     -27.921  -6.898 -12.191  1.00  0.00     0.156 N 
HETATM   52  C12 STM     1     -27.018  -7.878 -11.545  1.00  0.00     0.674 C 
HETATM   53  N2  STM     1     -27.759  -8.991 -10.952  1.00  0.00     0.142 N 
HETATM   54  N3  STM     1     -26.174  -7.238 -10.537  1.00  0.00     0.142 N 
HETATM   55  H15 STM     1     -27.073  -9.648 -10.506  1.00  0.00     0.318 HD
HETATM   56  H16 STM     1     -28.201  -9.541 -11.728  1.00  0.00     0.318 HD
HETATM   57  H17 STM     1     -25.492  -7.944 -10.185  1.00  0.00     0.318 HD
HETATM   58  H18 STM     1     -25.596  -6.507 -11.012  1.00  0.00     0.318 HD
HETATM   59  H1  STM     1     -27.363  -6.075 -12.514  1.00  0.00     0.321 HD
ENDBRANCH   4  51
TORSDOF 17
ENDMDL
