@<TRIPOS>MOLECULE
*****
 85 87 0 0 0
SMALL
GASTEIGER

@<TRIPOS>ATOM
      1  C1        10.7201  -47.3589  -17.7831 C.3     1  STM1       -0.0357
      2  N1         7.5562  -43.0587   -9.7821 N.3     1  STM1       -0.2816
      3  O1         9.9869  -46.5027  -15.6322 O.3     1  STM1       -0.3427
      4  C2         9.8163  -47.5962  -16.5542 C.3     1  STM1        0.0924
      5  N2         9.4427  -41.5043   -9.7300 N.3     1  STM1       -0.3034
      6  O2         8.2371  -46.8772  -14.0344 O.3     1  STM1       -0.3411
      7  C3        10.1098  -48.8901  -15.7269 C.3     1  STM1        0.1454
      8  N3         9.2923  -43.2467   -8.0811 N.3     1  STM1       -0.3034
      9  O3         8.2483  -47.7115  -11.2773 O.3     1  STM1       -0.3865
     10  C4        10.1072  -48.4132  -14.2434 C.3     1  STM1        0.1455
     11  N4         7.5384  -44.1530  -14.6732 N.3     1  STM1       -0.2816
     12  O4         8.4464  -45.8803   -9.2378 O.3     1  STM1       -0.3875
     13  C5         9.6615  -46.9412  -14.3000 C.3     1  STM1        0.1890
     14  N5         5.9008  -44.5118  -16.3800 N.3     1  STM1       -0.3034
     15  O5         7.9059  -42.2407  -12.5622 O.3     1  STM1       -0.3885
     16  C6         7.7722  -45.9960  -12.9693 C.3     1  STM1        0.1078
     17  N6         5.3133  -43.1909  -14.4801 N.3     1  STM1       -0.3034
     18  O6        11.4413  -48.4414  -13.6459 O.3     1  STM1       -0.3384
     19  C7         8.0554  -44.5167  -13.3254 C.3     1  STM1        0.0664
     20  N7        12.0742  -50.6356  -11.9730 N.3     1  STM1       -0.3099
     21  O7        12.6434  -47.3473  -11.8652 O.3     1  STM1       -0.3415
     22  C8         7.5398  -43.5805  -12.2026 C.3     1  STM1        0.0909
     23  O8        11.2641  -44.9233   -9.9444 O.3     1  STM1       -0.3924
     24  C9         8.1363  -43.9602  -10.8136 C.3     1  STM1        0.0660
     25  O9        12.1549  -47.5050   -8.1747 O.3     1  STM1       -0.3865
     26  C10        7.8480  -45.4590  -10.4834 C.3     1  STM1        0.1013
     27  O10       11.1043  -49.9535   -8.9982 O.3     1  STM1       -0.3874
     28  C11        8.4271  -46.3319  -11.6071 C.3     1  STM1        0.1102
     29  O11        7.7371  -49.5904  -16.2050 O.3     1  STM1       -0.3920
     30  C12        8.5233  -42.3274   -8.9283 C.3     1  STM1        0.1088
     31  O12       11.3912  -49.4434  -16.0548 O.3     1  STM1       -0.3810
     32  C13        6.0980  -44.3467  -14.9364 C.3     1  STM1        0.1088
     33  C14       11.4909  -48.1584  -12.2233 C.3     1  STM1        0.1780
     34  C15       11.4110  -49.4523  -11.3652 C.3     1  STM1        0.0876
     35  C16       11.9000  -49.1980   -9.9116 C.3     1  STM1        0.1035
     36  C17       11.7971  -47.7010   -9.5462 C.3     1  STM1        0.1109
     37  C18       12.7379  -46.8866  -10.4772 C.3     1  STM1        0.1129
     38  C19       12.5678  -45.3391  -10.3823 C.3     1  STM1        0.0730
     39  C20       13.5108  -50.4954  -12.2972 C.3     1  STM1       -0.0153
     40  C21        9.0878  -50.0337  -16.0077 C.3     1  STM1        0.0780
     41  H01       11.7639  -47.2323  -17.4854 H       1  STM1        0.0255
     42  H02       10.6501  -48.1966  -18.4805 H       1  STM1        0.0255
     43  H03       10.4080  -46.4528  -18.3068 H       1  STM1        0.0255
     44  H04        6.9325  -42.3931  -10.2341 H       1  STM1        0.1250
     45  H05        8.7743  -47.5648  -16.8773 H       1  STM1        0.0624
     46  H06        8.9269  -40.7923  -10.2428 H       1  STM1        0.1209
     47  H07       10.0941  -41.0159   -9.1178 H       1  STM1        0.1209
     48  H08        8.6590  -43.7608   -7.4709 H       1  STM1        0.1209
     49  H09        9.7521  -43.9458   -8.6618 H       1  STM1        0.1209
     50  H10        8.1630  -47.7650  -10.3070 H       1  STM1        0.2100
     51  H11        9.4210  -49.0137  -13.6387 H       1  STM1        0.0679
     52  H12        7.8300  -43.2111  -14.9268 H       1  STM1        0.1250
     53  H13        8.9950  -46.6930   -9.3560 H       1  STM1        0.2100
     54  H14       10.2089  -46.3013  -13.5954 H       1  STM1        0.0938
     55  H15        6.2510  -43.6963  -16.8777 H       1  STM1        0.1209
     56  H16        6.4339  -45.3150  -16.7086 H       1  STM1        0.1209
     57  H17        7.9780  -41.6900  -11.7660 H       1  STM1        0.2099
     58  H18        6.6937  -46.1474  -12.8761 H       1  STM1        0.0640
     59  H19        5.4627  -43.0317  -13.4866 H       1  STM1        0.1209
     60  H20        5.6184  -42.3489  -14.9641 H       1  STM1        0.1209
     61  H21        9.1406  -44.3879  -13.3688 H       1  STM1        0.0514
     62  H22       11.9280  -51.4487  -11.3781 H       1  STM1        0.1221
     63  H23        6.4514  -43.6530  -12.1365 H       1  STM1        0.0626
     64  H24       11.3260  -44.1110   -9.3820 H       1  STM1        0.2095
     65  H25        9.2171  -43.8165  -10.8702 H       1  STM1        0.0513
     66  H26       12.5890  -48.3140   -7.8510 H       1  STM1        0.2100
     67  H27        6.7664  -45.6142  -10.4254 H       1  STM1        0.0636
     68  H28       10.7860  -49.3280   -8.3220 H       1  STM1        0.2100
     69  H29        9.4881  -46.0902  -11.6541 H       1  STM1        0.0646
     70  H30        7.6080  -49.3720  -17.1540 H       1  STM1        0.2095
     71  H31        7.9592  -41.6606   -8.2662 H       1  STM1        0.0800
     72  H32       11.7300  -48.9530  -16.8180 H       1  STM1        0.2105
     73  H33        5.7420  -45.2554  -14.4406 H       1  STM1        0.0800
     74  H34       10.6268  -47.5463  -11.9839 H       1  STM1        0.0927
     75  H35       10.3465  -49.6976  -11.3072 H       1  STM1        0.0537
     76  H36       12.9442  -49.5009   -9.8076 H       1  STM1        0.0637
     77  H37       10.7641  -47.3743   -9.6869 H       1  STM1        0.0646
     78  H38       13.7671  -47.1034  -10.1770 H       1  STM1        0.0647
     79  H39       13.3019  -44.9595   -9.6668 H       1  STM1        0.0584
     80  H40       12.7824  -44.8881  -11.3554 H       1  STM1        0.0584
     81  H41       13.6717  -49.6550  -12.9770 H       1  STM1        0.0388
     82  H42       14.1003  -50.3449  -11.3904 H       1  STM1        0.0388
     83  H43       13.8556  -51.4087  -12.7888 H       1  STM1        0.0388
     84  H44        9.1115  -50.7408  -15.1737 H       1  STM1        0.0587
     85  H45        9.3951  -50.5753  -16.9068 H       1  STM1        0.0587
@<TRIPOS>BOND
     1    42     1    1
     2     1    43    1
     3     1    41    1
     4     1     4    1
     5    70    29    1
     6    45     4    1
     7    55    14    1
     8    72    31    1
     9    85    40    1
    10    56    14    1
    11     4     7    1
    12     4     3    1
    13    14    32    1
    14    29    40    1
    15    31     7    1
    16    40     7    1
    17    40    84    1
    18     7    10    1
    19     3    13    1
    20    60    17    1
    21    32    11    1
    22    32    73    1
    23    32    17    1
    24    52    11    1
    25    11    19    1
    26    17    59    1
    27    13    10    1
    28    13     6    1
    29    13    54    1
    30    10    18    1
    31    10    51    1
    32     6    16    1
    33    18    33    1
    34    61    19    1
    35    19    16    1
    36    19    22    1
    37    16    58    1
    38    16    28    1
    39    15    22    1
    40    15    57    1
    41    33    74    1
    42    33    21    1
    43    33    34    1
    44    22    63    1
    45    22    24    1
    46    20    62    1
    47    20    39    1
    48    20    34    1
    49    21    37    1
    50    83    39    1
    51    69    28    1
    52    81    39    1
    53    28     9    1
    54    28    26    1
    55    75    34    1
    56    39    82    1
    57    80    38    1
    58    34    35    1
    59     9    50    1
    60    65    24    1
    61    46     5    1
    62    24    26    1
    63    24     2    1
    64    37    38    1
    65    37    78    1
    66    37    36    1
    67    38    79    1
    68    38    23    1
    69    26    67    1
    70    26    12    1
    71    44     2    1
    72     5    47    1
    73     5    30    1
    74    35    76    1
    75    35    36    1
    76    35    27    1
    77     2    30    1
    78    77    36    1
    79    36    25    1
    80    23    64    1
    81    53    12    1
    82    27    68    1
    83    30    71    1
    84    30     8    1
    85    49     8    1
    86    25    66    1
    87     8    48    1
