@<TRIPOS>MOLECULE
*****
 54 57 0 0 0
SMALL
GASTEIGER

@<TRIPOS>ATOM
      1  C1        27.7188  -54.2216  -11.6925 C.3     1  CIP1       -0.0359
      2  N1        28.6815  -55.8299  -11.3496 N.3     1  CIP1       -0.2955
      3  O1        30.0370  -59.5556   -9.7722 O.3     1  CIP1       -0.3910
      4  C2        28.0546  -54.7486  -13.0307 C.3     1  CIP1       -0.0359
      5  N2        27.9484  -54.6523   -6.3497 N.3     1  CIP1       -0.2942
      6  O2        32.6932  -57.2844  -11.0742 O.3     1  CIP1       -0.3668
      7  C3        29.2031  -54.5669  -12.0214 C.3     1  CIP1        0.0108
      8  N3        26.2902  -52.7198   -4.8380 N.3     1  CIP1       -0.3136
      9  O3        32.0344  -57.5660  -13.2229 O.3     1  CIP1       -0.3668
     10  C4        29.0481  -57.1394  -12.0376 C.3     1  CIP1        0.0093
     11  C5        30.3185  -57.8566  -11.5073 C.3     1  CIP1        0.0487
     12  C6        30.1976  -58.1464   -9.9742 C.3     1  CIP1        0.0681
     13  C7        29.0069  -57.3915   -9.3372 C.3     1  CIP1        0.0038
     14  C8        29.0351  -57.4865   -7.7841 C.3     1  CIP1       -0.0136
     15  C9        29.7214  -56.2561   -7.1673 C.3     1  CIP1        0.1168
     16  C10       28.9006  -54.9665   -7.4680 C.3     1  CIP1        0.0430
     17  C11       28.2508  -55.0210   -8.8899 C.3     1  CIP1       -0.0186
     18  C12       29.0568  -55.9244   -9.8696 C.3     1  CIP1        0.0175
     19  C13       28.5081  -53.8107   -5.2510 C.3     1  CIP1        0.0119
     20  C14       27.7277  -52.4836   -5.1294 C.3     1  CIP1        0.0087
     21  C15       25.7563  -54.0069   -5.3516 C.3     1  CIP1        0.0087
     22  C16       26.4964  -54.4512   -6.6305 C.3     1  CIP1        0.0119
     23  C17       31.5965  -57.0798  -11.9517 C.3     1  CIP1        0.1595
     24  F1        29.9090  -56.4521   -5.8476 F       1  CIP1       -0.2439
     25  H01       26.8747  -54.7510  -11.2129 H       1  CIP1        0.0281
     26  H02       27.5250  -53.1536  -11.6394 H       1  CIP1        0.0281
     27  H03       30.3460  -59.7730   -8.8740 H       1  CIP1        0.2098
     28  H04       28.0481  -54.0345  -13.8492 H       1  CIP1        0.0281
     29  H05       27.5614  -55.6725  -13.3345 H       1  CIP1        0.0281
     30  H06       32.8670  -58.2390  -11.0970 H       1  CIP1        0.2125
     31  H07       29.8543  -53.7733  -11.6604 H       1  CIP1        0.0463
     32  H08       26.1115  -52.6629   -3.8373 H       1  CIP1        0.1220
     33  H09       31.8270  -56.9200  -13.9160 H       1  CIP1        0.2125
     34  H10       29.1824  -56.9987  -13.1132 H       1  CIP1        0.0432
     35  H11       28.2069  -57.8278  -11.9165 H       1  CIP1        0.0432
     36  H12       30.3512  -58.8248  -12.0164 H       1  CIP1        0.0387
     37  H13       31.1029  -57.8371   -9.4496 H       1  CIP1        0.0601
     38  H14       28.0710  -57.8587   -9.6578 H       1  CIP1        0.0342
     39  H15       29.5348  -58.4003   -7.4548 H       1  CIP1        0.0297
     40  H16       28.0098  -57.5401   -7.4081 H       1  CIP1        0.0297
     41  H17       30.7190  -56.1561   -7.6041 H       1  CIP1        0.0667
     42  H18       29.6294  -54.1522   -7.5137 H       1  CIP1        0.0491
     43  H19       28.1954  -53.9912   -9.2440 H       1  CIP1        0.0296
     44  H20       27.2352  -55.4179   -8.8618 H       1  CIP1        0.0296
     45  H21       30.0980  -55.5931   -9.7980 H       1  CIP1        0.0467
     46  H22       29.5679  -53.6015   -5.4206 H       1  CIP1        0.0439
     47  H23       28.4221  -54.3576   -4.3077 H       1  CIP1        0.0439
     48  H24       28.1609  -51.8579   -4.3447 H       1  CIP1        0.0437
     49  H25       27.8110  -51.9475   -6.0792 H       1  CIP1        0.0437
     50  H26       24.6854  -53.9076   -5.5471 H       1  CIP1        0.0437
     51  H27       25.8948  -54.7781   -4.5880 H       1  CIP1        0.0437
     52  H28       26.0583  -55.3867   -6.9888 H       1  CIP1        0.0439
     53  H29       26.3657  -53.6795   -7.3944 H       1  CIP1        0.0439
     54  H30       31.4240  -55.9954  -12.0194 H       1  CIP1        0.0909
@<TRIPOS>BOND
     1    28     4    1
     2    33     9    1
     3    29     4    1
     4     9    23    1
     5     4     1    1
     6     4     7    1
     7    34    10    1
     8    54    23    1
     9    36    11    1
    10    23    11    1
    11    23     6    1
    12    10    35    1
    13    10    11    1
    14    10     2    1
    15     1    26    1
    16     1     7    1
    17     1    25    1
    18     7    31    1
    19     7     2    1
    20    11    12    1
    21    30     6    1
    22     2    18    1
    23    12     3    1
    24    12    37    1
    25    12    13    1
    26     3    27    1
    27    45    18    1
    28    18    13    1
    29    18    17    1
    30    38    13    1
    31    13    14    1
    32    43    17    1
    33    17    44    1
    34    17    16    1
    35    14    39    1
    36    14    40    1
    37    14    15    1
    38    41    15    1
    39    53    22    1
    40    42    16    1
    41    16    15    1
    42    16     5    1
    43    15    24    1
    44    52    22    1
    45    22     5    1
    46    22    21    1
    47    49    20    1
    48     5    19    1
    49    50    21    1
    50    46    19    1
    51    20    19    1
    52    20     8    1
    53    20    48    1
    54    21     8    1
    55    21    51    1
    56    19    47    1
    57     8    32    1
