@<TRIPOS>MOLECULE
*****
 47 49 0 0 0
SMALL
GASTEIGER

@<TRIPOS>ATOM
      1  C1         8.7494  -31.5480   -3.9139 C.3     1  TOB1        0.0361
      2  N1         9.2035  -33.7226   -5.0679 N.3     1  TOB1       -0.3202
      3  O1        11.5783  -32.1274   -2.6576 O.3     1  TOB1       -0.3272
      4  C2         9.1624  -30.4888   -4.9551 C.3     1  TOB1        0.0824
      5  N2         9.0439  -32.6349    1.5397 N.3     1  TOB1       -0.3181
      6  O2        12.1462  -33.7863   -1.0128 O.3     1  TOB1       -0.3260
      7  C3        10.6836  -30.1847   -4.9511 C.3     1  TOB1        0.1610
      8  N3         7.5452  -30.0385   -0.7544 N.3     1  TOB1       -0.3191
      9  O3        10.1825  -36.8398   -1.0053 O.3     1  TOB1       -0.3794
     10  C4        11.5590  -31.4609   -5.0009 C.3     1  TOB1        0.1673
     11  N4        12.0987  -26.9060   -3.2697 N.3     1  TOB1       -0.3181
     12  O4        10.4297  -35.1733    1.8268 O.3     1  TOB1       -0.3804
     13  C5        11.1358  -32.5354   -3.9712 C.3     1  TOB1        0.1610
     14  N5         8.6461  -30.7923   -6.3006 N.3     1  TOB1       -0.3202
     15  O5        11.1549  -30.9888   -0.1383 O.3     1  TOB1       -0.3783
     16  C6         9.6120  -32.8235   -3.9757 C.3     1  TOB1        0.0824
     17  O6        11.5812  -32.0240   -6.3115 O.3     1  TOB1       -0.3795
     18  C7        11.1097  -32.9696   -1.5909 C.3     1  TOB1        0.2646
     19  O7        11.0710  -29.4385   -3.7729 O.3     1  TOB1       -0.3281
     20  C8        10.4134  -32.1582   -0.4754 C.3     1  TOB1        0.1835
     21  O8         9.8803  -28.6551   -1.8921 O.3     1  TOB1       -0.3281
     22  C9        10.2738  -32.9953    0.8101 C.3     1  TOB1        0.1128
     23  O9         7.9587  -25.6404   -1.1906 O.3     1  TOB1       -0.3819
     24  C10       10.3747  -34.5178    0.5637 C.3     1  TOB1        0.1566
     25  C11       11.6043  -34.9280   -0.3032 C.3     1  TOB1        0.1750
     26  C12       11.2853  -36.0076   -1.3654 C.3     1  TOB1        0.1693
     27  C13       10.1340  -28.4542   -3.2976 C.3     1  TOB1        0.2499
     28  C14       10.6496  -27.0107   -3.5124 C.3     1  TOB1        0.1105
     29  C15        9.8992  -26.0099   -2.6042 C.3     1  TOB1        0.0524
     30  C16        8.5576  -26.5724   -2.0861 C.3     1  TOB1        0.1404
     31  C17        8.7243  -27.9431   -1.3855 C.3     1  TOB1        0.1599
     32  C18        7.4699  -28.8161   -1.5729 C.3     1  TOB1        0.0977
     33  H8         9.3218  -33.2547   -5.9653 H       1  TOB1        0.1189
     34  H9         9.7879  -34.5562   -5.0753 H       1  TOB1        0.1189
     35  H17        9.4510  -36.2590   -0.7310 H       1  TOB1        0.2105
     36  H18       10.3710  -34.4710    2.5010 H       1  TOB1        0.2105
     37  H19        9.0252  -31.6317    1.7102 H       1  TOB1        0.1190
     38  H20        8.2278  -32.8577    0.9737 H       1  TOB1        0.1190
     39  H21       10.7160  -30.5800    0.6260 H       1  TOB1        0.2106
     40  H22       11.2430  -32.9330   -6.2300 H       1  TOB1        0.2105
     41  H31        7.6815  -29.7857    0.2221 H       1  TOB1        0.1189
     42  H32        6.6660  -30.5475   -0.8138 H       1  TOB1        0.1189
     43  H33        7.9590  -24.7720   -1.6280 H       1  TOB1        0.2104
     44  H34       12.3952  -25.9340   -3.3109 H       1  TOB1        0.1190
     45  H35       12.3153  -27.2578   -2.3389 H       1  TOB1        0.1190
     46  H36        7.6304  -30.8558   -6.2792 H       1  TOB1        0.1189
     47  H37        8.8906  -30.0425   -6.9446 H       1  TOB1        0.1189
@<TRIPOS>BOND
     1    47    14    1
     2    46    14    1
     3    14     4    1
     4    17    40    1
     5    17    10    1
     6    33     2    1
     7     2    34    1
     8     2    16    1
     9    10     7    1
    10    10    13    1
    11     4     7    1
    12     4     1    1
    13     7    19    1
    14    44    11    1
    15     1    16    1
    16    16    13    1
    17    13     3    1
    18    19    27    1
    19    28    11    1
    20    28    27    1
    21    28    29    1
    22    11    45    1
    23    27    21    1
    24     3    18    1
    25    29    30    1
    26    30    31    1
    27    30    23    1
    28    21    31    1
    29    18     6    1
    30    18    20    1
    31    43    23    1
    32    32    31    1
    33    32     8    1
    34     6    25    1
    35    26     9    1
    36    26    25    1
    37    35     9    1
    38    42     8    1
    39    20    15    1
    40    20    22    1
    41     8    41    1
    42    15    39    1
    43    25    24    1
    44    24    22    1
    45    24    12    1
    46    22     5    1
    47    37     5    1
    48    38     5    1
    49    12    36    1
