@<TRIPOS>MOLECULE
pyc.pdb
   26    28     1     0     0
SMALL
bcc


@<TRIPOS>ATOM
      1 H01         -0.5670    -4.5130     7.9940 h1         1 PYC       0.055367
      2 H02          1.0300    -5.2260     7.6650 h1         1 PYC       0.055367
      3 H03          0.1400    -5.6780     9.1390 h1         1 PYC       0.055367
      4 H04         -1.1390    -4.4540    10.6700 ha         1 PYC       0.139000
      5 H05          2.2200    -4.4950     6.8340 ha         1 PYC       0.140000
      6 H06          4.5000    -0.7640     9.1670 ha         1 PYC       0.160000
      7 H07         -1.8800    -3.4670    12.8000 ha         1 PYC       0.135000
      8 H08          4.2620    -3.4870     5.8620 ha         1 PYC       0.138000
      9 H09         -0.7130    -1.6540    13.8670 ha         1 PYC       0.155000
     10 H10          5.4050    -1.6150     7.0230 ha         1 PYC       0.143000
     11 O            1.4600    -0.5760    12.8380 o          1 PYC      -0.505100
     12 N            0.9980    -3.7670     9.1680 na         1 PYC      -0.127100
     13 N1           2.4040    -1.5950    10.4350 nc         1 PYC      -0.549000
     14 C            0.5320    -3.2410    10.3820 cd         1 PYC      -0.010600
     15 C1           2.1720    -3.2130     8.5720 ca         1 PYC      -0.004600
     16 C2           1.3350    -2.1010    10.9730 cd         1 PYC       0.341800
     17 C3           2.8420    -2.1440     9.2190 ca         1 PYC       0.294600
     18 C4           0.3600    -4.8660     8.4460 c3         1 PYC       0.015600
     19 C5          -0.5480    -3.6350    11.0800 cc         1 PYC      -0.260000
     20 C6           2.7120    -3.6750     7.3570 ca         1 PYC      -0.188000
     21 C7           0.8650    -1.4970    12.2960 c          1 PYC       0.471800
     22 C8           3.9960    -1.5840     8.6560 ca         1 PYC      -0.103300
     23 C9          -0.9860    -3.0620    12.3250 cc         1 PYC      -0.026000
     24 C10          3.8660    -3.1070     6.8040 ca         1 PYC      -0.071000
     25 C11         -0.3450    -2.0570    12.9230 cd         1 PYC      -0.281200
     26 C12          4.5080    -2.0600     7.4530 ca         1 PYC      -0.173000
@<TRIPOS>BOND
     1     1    18 1   
     2     2    18 1   
     3     3    18 1   
     4     4    19 1   
     5     5    20 1   
     6     6    22 1   
     7     7    23 1   
     8     8    24 1   
     9     9    25 1   
    10    10    26 1   
    11    11    21 2   
    12    12    14 1   
    13    12    15 1   
    14    12    18 1   
    15    13    16 2   
    16    13    17 1   
    17    14    16 1   
    18    14    19 2   
    19    15    17 ar  
    20    15    20 ar  
    21    16    21 1   
    22    17    22 ar  
    23    19    23 1   
    24    20    24 ar  
    25    21    25 1   
    26    22    26 ar  
    27    23    25 2   
    28    24    26 ar  
@<TRIPOS>SUBSTRUCTURE
     1 PYC         1 TEMP              0 ****  ****    0 ROOT
