@<TRIPOS>MOLECULE
pyc.pdb
 26 28 0 0 0
SMALL
GASTEIGER

@<TRIPOS>ATOM
      1  H01       58.4640   76.8210   31.2950 H       1  PYC1        0.0428
      2  H02       57.4550   78.0440   30.4880 H       1  PYC1        0.0428
      3  H03       57.9100   78.2520   32.1970 H       1  PYC1        0.0428
      4  H04       58.1900   76.4720   33.8680 H       1  PYC1        0.0414
      5  H05       56.2920   78.0270   29.3960 H       1  PYC1        0.0598
      6  H06       52.1460   75.6150   30.6410 H       1  PYC1        0.0636
      7  H07       57.8630   75.2270   35.9680 H       1  PYC1        0.0580
      8  H08       54.3550   78.0130   27.8560 H       1  PYC1        0.0615
      9  H09       55.8140   74.0850   36.4940 H       1  PYC1        0.0653
     10  H10       52.2770   76.8070   28.4730 H       1  PYC1        0.0618
     11  O         53.7470   74.0700   34.8610 O.2     1  PYC1       -0.2856
     12  N         56.4410   76.8020   31.8360 N.pl3   1  PYC1       -0.3172
     13  N         53.9810   75.4360   32.4560 N.2     1  PYC1       -0.2442
     14  C         56.3080   76.1080   33.0480 C.2     1  PYC1        0.0445
     15  C         55.3460   76.8200   30.9200 C.3     1  PYC1        0.1260
     16  C         54.9790   75.4190   33.2880 C.2     1  PYC1        0.1282
     17  C         54.1490   76.1380   31.2540 C.2     1  PYC1        0.0723
     18  C         57.6440   77.5260   31.4280 C.3     1  PYC1        0.0018
     19  C         57.2280   75.9840   34.0220 C.3     1  PYC1        0.0292
     20  C         55.3870   77.4910   29.6810 C.2     1  PYC1       -0.0522
     21  C         54.7890   74.6510   34.5950 C.2     1  PYC1        0.2054
     22  C         53.0600   76.1430   30.3700 C.2     1  PYC1       -0.0379
     23  C         57.0420   75.2580   35.2510 C.2     1  PYC1       -0.0707
     24  C         54.2930   77.4860   28.8080 C.2     1  PYC1       -0.0632
     25  C         55.9100   74.6220   35.5500 C.2     1  PYC1       -0.0160
     26  C         53.1300   76.8120   29.1520 C.2     1  PYC1       -0.0602
@<TRIPOS>BOND
     1     1    18    1
     2     2    18    1
     3     3    18    1
     4     4    19    1
     5     5    20    1
     6     6    22    1
     7     7    23    1
     8     8    24    1
     9     9    25    1
    10    10    26    1
    11    11    21    2
    12    12    14    1
    13    12    15    1
    14    12    18    1
    15    13    16    1
    16    13    17    2
    17    14    16    2
    18    14    19    1
    19    15    17    1
    20    15    20    1
    21    16    21    1
    22    17    22    1
    23    19    23    1
    24    20    24    2
    25    21    25    1
    26    22    26    2
    27    23    25    2
    28    24    26    1
