@<TRIPOS>MOLECULE
pyc.pdb
   26    28     1     0     0
SMALL
bcc


@<TRIPOS>ATOM
      1 H01         58.4640    76.8210    31.2950 h1         1 PYC       0.055367
      2 H02         57.4550    78.0440    30.4880 h1         1 PYC       0.055367
      3 H03         57.9100    78.2520    32.1970 h1         1 PYC       0.055367
      4 H04         58.1900    76.4720    33.8680 ha         1 PYC       0.139000
      5 H05         56.2920    78.0270    29.3960 ha         1 PYC       0.140000
      6 H06         52.1460    75.6150    30.6410 ha         1 PYC       0.160000
      7 H07         57.8630    75.2270    35.9680 ha         1 PYC       0.135000
      8 H08         54.3550    78.0130    27.8560 ha         1 PYC       0.138000
      9 H09         55.8140    74.0850    36.4940 ha         1 PYC       0.155000
     10 H10         52.2770    76.8070    28.4730 ha         1 PYC       0.143000
     11 O           53.7470    74.0700    34.8610 o          1 PYC      -0.505100
     12 N           56.4410    76.8020    31.8360 na         1 PYC      -0.127100
     13 N1          53.9810    75.4360    32.4560 nc         1 PYC      -0.549000
     14 C           56.3080    76.1080    33.0480 cd         1 PYC      -0.010600
     15 C1          55.3460    76.8200    30.9200 ca         1 PYC      -0.004600
     16 C2          54.9790    75.4190    33.2880 cd         1 PYC       0.341800
     17 C3          54.1490    76.1380    31.2540 ca         1 PYC       0.294600
     18 C4          57.6440    77.5260    31.4280 c3         1 PYC       0.015600
     19 C5          57.2280    75.9840    34.0220 cc         1 PYC      -0.260000
     20 C6          55.3870    77.4910    29.6810 ca         1 PYC      -0.188000
     21 C7          54.7890    74.6510    34.5950 c          1 PYC       0.471800
     22 C8          53.0600    76.1430    30.3700 ca         1 PYC      -0.103300
     23 C9          57.0420    75.2580    35.2510 cc         1 PYC      -0.026000
     24 C10         54.2930    77.4860    28.8080 ca         1 PYC      -0.071000
     25 C11         55.9100    74.6220    35.5500 cd         1 PYC      -0.281200
     26 C12         53.1300    76.8120    29.1520 ca         1 PYC      -0.173000
@<TRIPOS>BOND
     1     1    18 1   
     2     2    18 1   
     3     3    18 1   
     4     4    19 1   
     5     5    20 1   
     6     6    22 1   
     7     7    23 1   
     8     8    24 1   
     9     9    25 1   
    10    10    26 1   
    11    11    21 2   
    12    12    14 1   
    13    12    15 1   
    14    12    18 1   
    15    13    16 2   
    16    13    17 1   
    17    14    16 1   
    18    14    19 2   
    19    15    17 ar  
    20    15    20 ar  
    21    16    21 1   
    22    17    22 ar  
    23    19    23 1   
    24    20    24 ar  
    25    21    25 1   
    26    22    26 ar  
    27    23    25 2   
    28    24    26 ar  
@<TRIPOS>SUBSTRUCTURE
     1 PYC         1 TEMP              0 ****  ****    0 ROOT
