REMARK  3 active torsions:
REMARK  status: ('A' for Active; 'I' for Inactive)
REMARK    1  A    between atoms: O_2  and  C_16 
REMARK    2  A    between atoms: N_4  and  C_8 
REMARK    3  A    between atoms: C_10  and  C_16 
ROOT
HETATM    1  O   NDX     0       1.495  -2.310  -0.295  0.00  0.00    -0.286 OA
HETATM    2  N   NDX     0      -0.047   1.407   0.290  0.00  0.00    -0.340 N 
HETATM    3  N   NDX     0      -2.299   0.528   0.194  0.00  0.00    -0.235 NA
HETATM    4  C   NDX     0      -0.955   0.326   0.141  0.00  0.00     0.144 A 
HETATM    5  C   NDX     0      -0.439  -0.965  -0.062  0.00  0.00     0.061 A 
HETATM    6  C   NDX     0       1.313   1.183   0.235  0.00  0.00     0.115 A 
HETATM    7  C   NDX     0       1.902  -0.003   0.046  0.00  0.00     0.104 A 
HETATM    8  C   NDX     0       1.028  -1.191  -0.120  0.00  0.00     0.204 A 
HETATM    9  C   NDX     0      -1.310  -2.047  -0.211  0.00  0.00     0.021 A 
HETATM   10  C   NDX     0      -3.118  -0.538   0.046  0.00  0.00     0.033 A 
HETATM   11  C   NDX     0      -2.679  -1.832  -0.156  0.00  0.00     0.028 A 
HETATM   12  C   NDX     0      -4.584  -0.266   0.111  0.00  0.00     0.070 C 
ENDROOT
BRANCH   7  13
HETATM   13  C   NDX     0       3.364  -0.061   0.013  0.00  0.00     0.181 C 
HETATM   14  O   NDX     0       4.061   0.867  -0.378  0.00  0.00    -0.646 OA
BRANCH  13  15
HETATM   15  O   NDX     0       3.789  -1.253   0.470  0.00  0.00    -0.773 OA
HETATM   16  H   NDX     0       4.767  -1.324   0.463  0.00  0.00     0.167 HD
ENDBRANCH  13  15
ENDBRANCH   7  13
BRANCH   2  17
HETATM   17  C   NDX     0      -0.637   2.723   0.499  0.00  0.00     0.125 C 
HETATM   18  C   NDX     0      -0.882   3.431  -0.823  0.00  0.00     0.027 C 
ENDBRANCH   2  17
TORSDOF 3
