@<TRIPOS>MOLECULE
phz.pdb
 16 16 0 0 0
SMALL
GASTEIGER

@<TRIPOS>ATOM
      1  H1        48.0330   49.9100   50.8560 H       1  PHZ1        0.0618
      2  H2        45.5860   49.8790   50.4290 H       1  PHZ1        0.0618
      3  H3        44.7220   50.1210   48.1180 H       1  PHZ1        0.0636
      4  H4        48.7500   50.4510   46.6520 H       1  PHZ1        0.0636
      5  H5        49.6130   50.2070   48.9640 H       1  PHZ1        0.0618
      6  C1        47.6540   50.0180   49.8400 C.ar    1  PHZ1       -0.0616
      7  C2        46.2830   49.9950   49.5990 C.ar    1  PHZ1       -0.0600
      8  C3        45.7980   50.1210   48.2930 C.ar    1  PHZ1       -0.0397
      9  C4        46.6740   50.2470   47.2070 C.ar    1  PHZ1        0.0410
     10  C5        48.0500   50.3050   47.4750 C.ar    1  PHZ1       -0.0397
     11  C6        48.5390   50.1790   48.7790 C.ar    1  PHZ1       -0.0600
     12  N1        46.2330   50.4390   45.8740 N.pl3   1  PHZ1       -0.2830
     13  H6        46.7540   49.8580   45.2140 H       1  PHZ1        0.1660
     14  N2        44.8630   50.5680   45.6000 N.3     1  PHZ1       -0.2565
     15  H7        44.4360   51.2260   46.2540 H       1  PHZ1        0.1404
     16  H8        44.3840   49.6740   45.7260 H       1  PHZ1        0.1404
@<TRIPOS>BOND
     1     1     6    1
     2     2     7    1
     3     3     8    1
     4     4    10    1
     5     5    11    1
     6     6     7   ar
     7     6    11   ar
     8     7     8   ar
     9     8     9   ar
    10     9    10   ar
    11     9    12    1
    12    10    11   ar
    13    12    13    1
    14    12    14    1
    15    14    15    1
    16    14    16    1
