@<TRIPOS>MOLECULE
*****
 41 42 0 0 0
SMALL
GASTEIGER

@<TRIPOS>ATOM
      1  C1         4.7248  -53.6541   -3.4186 C.3     1  NDX1       -0.0523
      2  N1         4.6830  -52.7447   -1.0618 N.3     1  NDX1       -0.2866
      3  O1         5.1718  -49.5433    1.6523 O.3     1  NDX1       -0.3909
      4  C2         4.2450  -53.8506   -1.9652 C.3     1  NDX1       -0.0025
      5  N2         5.3491  -54.3275    0.6684 N.3     1  NDX1       -0.2983
      6  O2         3.2596  -48.9969   -2.2615 O.3     1  NDX1       -0.3668
      7  C3         3.9729  -51.4750   -1.3705 C.3     1  NDX1        0.0101
      8  O3         2.8995  -48.4146   -0.0611 O.3     1  NDX1       -0.3668
      9  C4         4.5528  -50.2649   -0.5892 C.3     1  NDX1        0.0488
     10  C5         4.4828  -50.5637    0.9276 C.3     1  NDX1        0.0693
     11  C6         5.1301  -51.9288    1.2744 C.3     1  NDX1        0.0144
     12  C7         4.5842  -53.0800    0.3868 C.3     1  NDX1        0.0666
     13  C8         5.7637  -54.5490    2.0769 C.3     1  NDX1        0.0062
     14  C9         4.8468  -53.7857    3.0556 C.3     1  NDX1       -0.0373
     15  C10        4.9119  -52.2647    2.7796 C.3     1  NDX1       -0.0438
     16  C11        5.7763  -56.0593    2.3805 C.3     1  NDX1       -0.0496
     17  C12        3.8896  -48.8956   -0.9854 C.3     1  NDX1        0.1595
     18  H01        5.8003  -53.4625   -3.4448 H       1  NDX1        0.0242
     19  H02        4.5269  -54.5571   -4.0000 H       1  NDX1        0.0242
     20  H03        4.2086  -52.8265   -3.9079 H       1  NDX1        0.0242
     21  H04        5.1010  -49.7820    2.5900 H       1  NDX1        0.2098
     22  H05        4.6695  -54.8003   -1.6329 H       1  NDX1        0.0424
     23  H06        3.1557  -53.9445   -1.9425 H       1  NDX1        0.0424
     24  H07        4.8242  -55.1270    0.3202 H       1  NDX1        0.1237
     25  H08        2.9160  -49.9150   -2.3200 H       1  NDX1        0.2125
     26  H09        2.9082  -51.5825   -1.1426 H       1  NDX1        0.0432
     27  H10        4.0827  -51.2713   -2.4365 H       1  NDX1        0.0432
     28  H11        2.8770  -47.4280   -0.0880 H       1  NDX1        0.2125
     29  H12        5.6089  -50.1896   -0.8634 H       1  NDX1        0.0387
     30  H13        3.4329  -50.5823    1.2342 H       1  NDX1        0.0602
     31  H14        6.2064  -51.8530    1.0892 H       1  NDX1        0.0354
     32  H15        3.5257  -53.2588    0.6325 H       1  NDX1        0.0634
     33  H16        6.7802  -54.1636    2.1997 H       1  NDX1        0.0458
     34  H17        5.1400  -53.9824    4.0897 H       1  NDX1        0.0280
     35  H18        3.8175  -54.1358    2.9379 H       1  NDX1        0.0280
     36  H19        3.9851  -51.8146    3.1442 H       1  NDX1        0.0270
     37  H20        5.7284  -51.8252    3.3578 H       1  NDX1        0.0270
     38  H21        4.7777  -56.4874    2.2626 H       1  NDX1        0.0245
     39  H22        6.4564  -56.5794    1.7018 H       1  NDX1        0.0245
     40  H23        6.1117  -56.2425    3.4038 H       1  NDX1        0.0245
     41  H24        4.6621  -48.1136   -1.0494 H       1  NDX1        0.0909
@<TRIPOS>BOND
     1    19     1    1
     2    18     1    1
     3    20     1    1
     4     1     4    1
     5    27     7    1
     6    25     6    1
     7     6    17    1
     8     4    23    1
     9     4    22    1
    10     4     2    1
    11     7    26    1
    12     7     2    1
    13     7     9    1
    14    41    17    1
    15     2    12    1
    16    17     9    1
    17    17     8    1
    18    29     9    1
    19     9    10    1
    20    28     8    1
    21    24     5    1
    22    12    32    1
    23    12     5    1
    24    12    11    1
    25     5    13    1
    26    10    30    1
    27    10    11    1
    28    10     3    1
    29    31    11    1
    30    11    15    1
    31    39    16    1
    32     3    21    1
    33    38    16    1
    34    13    16    1
    35    13    33    1
    36    13    14    1
    37    16    40    1
    38    35    14    1
    39    15    14    1
    40    15    36    1
    41    15    37    1
    42    14    34    1
