MODEL 1
REMARK VINA RESULT:    -6.753      0.000      0.000
REMARK INTER + INTRA:          -8.842
REMARK INTER:                  -8.530
REMARK INTRA:                  -0.312
REMARK UNBOUND:                -0.312
REMARK  6 active torsions:
REMARK  status: ('A' for Active; 'I' for Inactive)
REMARK    1  A    between atoms: C3_3  and  N1_4 
REMARK    2  A    between atoms: C5_6  and  C17_22 
REMARK    3  A    between atoms: C6_7  and  O1_8 
REMARK    4  A    between atoms: C10_12  and  N2_15 
REMARK    5  A    between atoms: C17_22  and  O2_23 
REMARK    6  A    between atoms: C17_22  and  O3_24 
ROOT
HETATM    1  N1  CIP     1     -37.852  -6.086  39.144  1.00  0.00     0.099 N 
HETATM    2  C4  CIP     1     -36.551  -6.785  38.943  1.00  0.00     0.285 C 
HETATM    3  C5  CIP     1     -35.278  -5.883  38.985  1.00  0.00     0.098 C 
HETATM    4  C6  CIP     1     -35.261  -4.913  40.213  1.00  0.00     0.135 C 
HETATM    5  C7  CIP     1     -36.610  -4.909  40.964  1.00  0.00     0.051 C 
HETATM    6  C8  CIP     1     -36.699  -3.809  42.056  1.00  0.00     0.049 C 
HETATM    7  C9  CIP     1     -37.575  -2.619  41.644  1.00  0.00     0.204 C 
HETATM    8  C10 CIP     1     -39.034  -3.040  41.238  1.00  0.00     0.258 C 
HETATM    9  C11 CIP     1     -39.057  -4.495  40.664  1.00  0.00     0.075 C 
HETATM   10  C12 CIP     1     -37.749  -4.821  39.920  1.00  0.00     0.232 C 
HETATM   11  F1  CIP     1     -37.562  -1.699  42.677  1.00  0.00    -0.247 F 
ENDROOT
BRANCH   8  12
HETATM   12  N2  CIP     1     -39.992  -2.812  42.366  1.00  0.00     0.099 N 
HETATM   13  C13 CIP     1     -41.237  -2.127  41.906  1.00  0.00     0.302 C 
HETATM   14  C14 CIP     1     -42.465  -3.050  41.900  1.00  0.00     0.299 C 
HETATM   15  N3  CIP     1     -42.750  -3.581  43.242  1.00  0.00     0.086 N 
HETATM   16  C15 CIP     1     -41.540  -3.822  44.049  1.00  0.00     0.299 C 
HETATM   17  H13 CIP     1     -43.263  -4.487  43.128  1.00  0.00     0.315 HD
HETATM   18  C16 CIP     1     -40.289  -4.020  43.181  1.00  0.00     0.302 C 
ENDBRANCH   8  12
BRANCH   1  19
HETATM   19  C3  CIP     1     -38.543  -5.873  37.855  1.00  0.00     0.223 A 
HETATM   20  C1  CIP     1     -40.053  -6.054  37.934  1.00  0.00     0.038 A 
HETATM   21  C2  CIP     1     -39.202  -7.122  37.281  1.00  0.00     0.038 A 
ENDBRANCH   1  19
BRANCH   4  22
HETATM   22  O1  CIP     1     -34.209  -5.237  41.092  1.00  0.00    -0.395 OA
HETATM   23  H4  CIP     1     -34.062  -6.218  41.033  1.00  0.00     0.210 HD
ENDBRANCH   4  22
BRANCH   3  24
HETATM   24  C17 CIP     1     -34.967  -5.150  37.653  1.00  0.00     0.262 C 
BRANCH  24  25
HETATM   25  O2  CIP     1     -35.396  -3.811  37.700  1.00  0.00    -0.371 OA
HETATM   26  H12 CIP     1     -34.769  -3.272  37.154  1.00  0.00     0.212 HD
ENDBRANCH  24  25
BRANCH  24  27
HETATM   27  O3  CIP     1     -33.605  -5.230  37.323  1.00  0.00    -0.371 OA
HETATM   28  H18 CIP     1     -33.466  -4.623  36.551  1.00  0.00     0.212 HD
ENDBRANCH  24  27
ENDBRANCH   3  24
TORSDOF 6
ENDMDL
