MODEL 1
REMARK VINA RESULT:    -7.146      0.000      0.000
REMARK INTER + INTRA:          -9.218
REMARK INTER:                  -8.608
REMARK INTRA:                  -0.609
REMARK UNBOUND:                -0.609
REMARK  5 active torsions:
REMARK  status: ('A' for Active; 'I' for Inactive)
REMARK    1  A    between atoms: C7_9  and  C18_24 
REMARK    2  A    between atoms: C8_10  and  O2_11 
REMARK    3  A    between atoms: C12_15  and  N2_16 
REMARK    4  A    between atoms: C18_24  and  O3_25 
REMARK    5  A    between atoms: C18_24  and  O4_26 
ROOT
HETATM    1  C1  LEV     1      12.996   9.130   5.408  1.00  0.00     0.045 C 
HETATM    2  C2  LEV     1      13.695   9.050   6.767  1.00  0.00     0.243 C 
HETATM    3  C3  LEV     1      12.684   8.645   7.872  1.00  0.00     0.203 C 
HETATM    4  O1  LEV     1      12.274   7.293   7.775  1.00  0.00    -0.379 OA
HETATM    5  C4  LEV     1      13.351   6.375   7.600  1.00  0.00     0.191 C 
HETATM    6  C5  LEV     1      14.765   7.013   7.650  1.00  0.00     0.261 C 
HETATM    7  N1  LEV     1      14.837   8.101   6.658  1.00  0.00     0.103 N 
HETATM    8  C6  LEV     1      16.137   8.798   6.739  1.00  0.00     0.285 C 
HETATM    9  C7  LEV     1      17.293   7.823   6.424  1.00  0.00     0.098 C 
HETATM   10  C8  LEV     1      17.245   6.604   7.383  1.00  0.00     0.135 C 
HETATM   11  C9  LEV     1      15.845   5.946   7.358  1.00  0.00     0.054 C 
HETATM   12  C10 LEV     1      15.744   4.794   8.385  1.00  0.00     0.049 C 
HETATM   13  C11 LEV     1      14.341   4.164   8.379  1.00  0.00     0.206 C 
HETATM   14  C12 LEV     1      13.259   5.247   8.653  1.00  0.00     0.287 C 
HETATM   15  F1  LEV     1      14.149   3.552   7.151  1.00  0.00    -0.247 F 
ENDROOT
BRANCH  14  16
HETATM   16  N2  LEV     1      11.867   4.728   8.777  1.00  0.00     0.102 N 
HETATM   17  C13 LEV     1      11.260   4.220   7.534  1.00  0.00     0.303 C 
HETATM   18  C14 LEV     1       9.764   3.964   7.762  1.00  0.00     0.302 C 
HETATM   19  N3  LEV     1       9.519   3.042   8.891  1.00  0.00     0.087 N 
HETATM   20  C15 LEV     1      10.237   3.457  10.115  1.00  0.00     0.302 C 
HETATM   21  C17 LEV     1       9.777   1.635   8.540  1.00  0.00     0.310 C 
HETATM   22  C16 LEV     1      11.725   3.737   9.858  1.00  0.00     0.303 C 
ENDBRANCH  14  16
BRANCH  10  23
HETATM   23  O2  LEV     1      18.239   5.664   7.050  1.00  0.00    -0.395 OA
HETATM   24  H6  LEV     1      18.630   5.935   6.178  1.00  0.00     0.210 HD
ENDBRANCH  10  23
BRANCH   9  25
HETATM   25  C18 LEV     1      18.667   8.535   6.481  1.00  0.00     0.262 C 
BRANCH  25  26
HETATM   26  O3  LEV     1      19.465   8.132   5.400  1.00  0.00    -0.371 OA
HETATM   27  H12 LEV     1      19.563   7.147   5.475  1.00  0.00     0.212 HD
ENDBRANCH  25  26
BRANCH  25  28
HETATM   28  O4  LEV     1      19.328   8.228   7.683  1.00  0.00    -0.371 OA
HETATM   29  H20 LEV     1      19.890   9.014   7.911  1.00  0.00     0.212 HD
ENDBRANCH  25  28
ENDBRANCH   9  25
TORSDOF 5
ENDMDL
