MODEL 1
REMARK VINA RESULT:    -7.968      0.000      0.000
REMARK INTER + INTRA:         -15.472
REMARK INTER:                 -13.325
REMARK INTRA:                  -2.147
REMARK UNBOUND:                -2.147
REMARK  16 active torsions:
REMARK  status: ('A' for Active; 'I' for Inactive)
REMARK    1  A    between atoms: C3_3  and  C20_33 
REMARK    2  A    between atoms: C5_7  and  N2_10 
REMARK    3  A    between atoms: C6_8  and  O1_9 
REMARK    4  A    between atoms: N2_10  and  C7_11 
REMARK    5  A    between atoms: C7_11  and  O2_12 
REMARK    6  A    between atoms: C7_11  and  C8_13 
REMARK    7  A    between atoms: C8_13  and  C9_14 
REMARK    8  A    between atoms: C8_13  and  N3_20 
REMARK    9  A    between atoms: N3_20  and  C15_21 
REMARK   10  A    between atoms: C15_21  and  O3_22 
REMARK   11  A    between atoms: C15_21  and  N4_23 
REMARK   12  A    between atoms: C18_27  and  O4_28 
REMARK   13  A    between atoms: S2_29  and  O5_30 
REMARK   14  A    between atoms: S2_29  and  O6_31 
REMARK   15  A    between atoms: C20_33  and  O7_34 
REMARK   16  A    between atoms: C20_33  and  O8_35 
ROOT
HETATM    1  C8  MEZ     1     -39.965  -5.431  43.451  1.00  0.00     0.288 C 
ENDROOT
BRANCH   1   2
HETATM    2  C7  MEZ     1     -41.084  -4.367  43.733  1.00  0.00     0.388 C 
BRANCH   2   3
HETATM    3  N2  MEZ     1     -40.561  -2.987  43.703  1.00  0.00     0.126 N 
HETATM    4  H7  MEZ     1     -40.472  -2.610  44.675  1.00  0.00     0.320 HD
BRANCH   3   5
HETATM    5  C5  MEZ     1     -41.297  -2.068  42.809  1.00  0.00     0.325 A 
HETATM    6  C4  MEZ     1     -42.094  -0.939  43.479  1.00  0.00     0.326 A 
HETATM    7  N1  MEZ     1     -41.180   0.108  43.005  1.00  0.00     0.146 N 
HETATM    8  S1  MEZ     1     -42.239  -0.943  45.300  1.00  0.00    -0.119 SA
HETATM    9  C3  MEZ     1     -40.513   0.738  44.169  1.00  0.00     0.299 C 
HETATM   10  C6  MEZ     1     -40.420  -0.939  42.279  1.00  0.00     0.395 A 
HETATM   11  C2  MEZ     1     -41.506   0.711  45.363  1.00  0.00     0.039 C 
HETATM   12  C1  MEZ     1     -42.642   1.746  45.239  1.00  0.00     0.029 C 
HETATM   13  C21 MEZ     1     -40.806   0.865  46.726  1.00  0.00     0.029 C 
BRANCH   9  14
HETATM   14  C20 MEZ     1     -40.026   2.151  43.757  1.00  0.00     0.289 C 
BRANCH  14  15
HETATM   15  O7  MEZ     1     -39.787   2.187  42.372  1.00  0.00    -0.369 OA
HETATM   16  H18 MEZ     1     -40.218   1.380  41.989  1.00  0.00     0.212 HD
ENDBRANCH  14  15
BRANCH  14  17
HETATM   17  O8  MEZ     1     -38.859   2.514  44.447  1.00  0.00    -0.369 OA
HETATM   18  H22 MEZ     1     -38.261   2.964  43.793  1.00  0.00     0.212 HD
ENDBRANCH  14  17
ENDBRANCH   9  14
BRANCH  10  19
HETATM   19  O1  MEZ     1     -39.069  -1.057  42.650  1.00  0.00    -0.366 OA
HETATM   20  H2  MEZ     1     -38.743  -1.904  42.249  1.00  0.00     0.212 HD
ENDBRANCH  10  19
ENDBRANCH   3   5
ENDBRANCH   2   3
BRANCH   2  21
HETATM   21  O2  MEZ     1     -42.181  -4.500  42.857  1.00  0.00    -0.366 OA
HETATM   22  H4  MEZ     1     -43.012  -4.510  43.399  1.00  0.00     0.212 HD
ENDBRANCH   2  21
ENDBRANCH   1   2
BRANCH   1  23
HETATM   23  C9  MEZ     1     -40.478  -6.884  43.197  1.00  0.00     0.023 C 
HETATM   24  C10 MEZ     1     -40.135  -7.450  41.803  1.00  0.00     0.007 C 
HETATM   25  C11 MEZ     1     -40.930  -8.740  41.513  1.00  0.00     0.000 C 
HETATM   26  C12 MEZ     1     -41.222  -9.577  42.776  1.00  0.00     0.000 C 
HETATM   27  C13 MEZ     1     -40.159  -9.365  43.862  1.00  0.00     0.000 C 
HETATM   28  C14 MEZ     1     -40.087  -7.891  44.316  1.00  0.00     0.007 C 
ENDBRANCH   1  23
BRANCH   1  29
HETATM   29  N3  MEZ     1     -39.129  -5.036  42.291  1.00  0.00     0.152 N 
HETATM   30  H14 MEZ     1     -39.502  -4.204  41.777  1.00  0.00     0.322 HD
BRANCH  29  31
HETATM   31  C15 MEZ     1     -37.723  -4.783  42.650  1.00  0.00     0.600 C 
BRANCH  31  32
HETATM   32  O3  MEZ     1     -37.484  -3.395  42.646  1.00  0.00    -0.345 OA
HETATM   33  H12 MEZ     1     -36.735  -3.222  43.274  1.00  0.00     0.214 HD
ENDBRANCH  31  32
BRANCH  31  34
HETATM   34  N4  MEZ     1     -36.844  -5.424  41.651  1.00  0.00     0.198 N 
HETATM   35  C16 MEZ     1     -35.439  -5.068  41.815  1.00  0.00     0.304 C 
HETATM   36  C17 MEZ     1     -34.826  -5.229  40.440  1.00  0.00     0.168 C 
HETATM   37  N5  MEZ     1     -35.920  -5.235  39.478  1.00  0.00    -0.280 N 
HETATM   38  C18 MEZ     1     -37.148  -5.083  40.252  1.00  0.00     0.480 C 
HETATM   39  S2  MEZ     1     -35.359  -5.225  38.164  1.00  0.00     0.045 S 
HETATM   40  C19 MEZ     1     -36.198  -7.383  37.847  1.00  0.00     0.150 C 
BRANCH  38  41
HETATM   41  O4  MEZ     1     -37.595  -3.755  40.118  1.00  0.00    -0.352 OA
HETATM   42  H14 MEZ     1     -36.787  -3.181  40.070  1.00  0.00     0.214 HD
ENDBRANCH  38  41
BRANCH  39  43
HETATM   43  O5  MEZ     1     -37.492  -4.600  36.781  1.00  0.00    -0.312 OA
HETATM   44  H15 MEZ     1     -37.192  -4.320  35.881  1.00  0.00     0.230 HD
ENDBRANCH  39  43
BRANCH  39  45
HETATM   45  O6  MEZ     1     -35.558  -3.609  37.470  1.00  0.00    -0.312 OA
HETATM   46  H16 MEZ     1     -35.045  -3.342  36.667  1.00  0.00     0.230 HD
ENDBRANCH  39  45
ENDBRANCH  31  34
ENDBRANCH  29  31
ENDBRANCH   1  29
TORSDOF 16
ENDMDL
