MODEL 1
REMARK VINA RESULT:    -7.465      0.000      0.000
REMARK INTER + INTRA:         -18.213
REMARK INTER:                 -14.229
REMARK INTRA:                  -3.985
REMARK UNBOUND:                -3.985
REMARK  22 active torsions:
REMARK  status: ('A' for Active; 'I' for Inactive)
REMARK    1  A    between atoms: C2_2  and  N6_42 
REMARK    2  A    between atoms: C3_3  and  O13_41 
REMARK    3  A    between atoms: C4_4  and  O5_20 
REMARK    4  A    between atoms: C5_5  and  O1_8 
REMARK    5  A    between atoms: C6_6  and  N1_7 
REMARK    6  A    between atoms: O1_8  and  C7_9 
REMARK    7  A    between atoms: C8_10  and  N3_19 
REMARK    8  A    between atoms: C9_11  and  O4_18 
REMARK    9  A    between atoms: C10_12  and  O3_17 
REMARK   10  A    between atoms: C11_13  and  C12_15 
REMARK   11  A    between atoms: C12_15  and  N2_16 
REMARK   12  A    between atoms: O5_20  and  C13_21 
REMARK   13  A    between atoms: C14_22  and  O12_40 
REMARK   14  A    between atoms: C15_23  and  O8_28 
REMARK   15  A    between atoms: C16_24  and  C17_26 
REMARK   16  A    between atoms: C17_26  and  O7_27 
REMARK   17  A    between atoms: O8_28  and  C18_29 
REMARK   18  A    between atoms: C19_30  and  N5_39 
REMARK   19  A    between atoms: C20_31  and  O11_38 
REMARK   20  A    between atoms: C21_32  and  O10_37 
REMARK   21  A    between atoms: C22_33  and  C23_35 
REMARK   22  A    between atoms: C23_35  and  N4_36 
ROOT
HETATM    1  C1  NEO     1     -35.326  -7.369  38.497  1.00  0.00     0.076 C 
HETATM    2  C2  NEO     1     -34.887  -5.929  38.192  1.00  0.00     0.251 C 
HETATM    3  C3  NEO     1     -36.099  -5.071  37.765  1.00  0.00     0.182 C 
HETATM    4  C4  NEO     1     -37.189  -5.092  38.857  1.00  0.00     0.186 C 
HETATM    5  C5  NEO     1     -37.648  -6.537  39.156  1.00  0.00     0.189 C 
HETATM    6  C6  NEO     1     -36.428  -7.405  39.576  1.00  0.00     0.251 C 
ENDROOT
BRANCH   4   7
HETATM    7  O5  NEO     1     -38.307  -4.339  38.404  1.00  0.00    -0.348 OA
BRANCH   7   8
HETATM    8  C13 NEO     1     -38.590  -3.245  39.260  1.00  0.00     0.292 C 
HETATM    9  C14 NEO     1     -40.040  -3.306  39.713  1.00  0.00     0.205 C 
HETATM   10  C15 NEO     1     -39.993  -2.585  41.040  1.00  0.00     0.189 C 
HETATM   11  C16 NEO     1     -38.569  -2.907  41.516  1.00  0.00     0.180 C 
HETATM   12  O6  NEO     1     -37.784  -3.326  40.415  1.00  0.00    -0.348 OA
BRANCH   9  13
HETATM   13  O12 NEO     1     -40.947  -2.740  38.795  1.00  0.00    -0.388 OA
HETATM   14  H43 NEO     1     -41.873  -2.943  39.088  1.00  0.00     0.210 HD
ENDBRANCH   9  13
BRANCH  10  15
HETATM   15  O8  NEO     1     -40.089  -1.179  40.849  1.00  0.00    -0.348 OA
BRANCH  15  16
HETATM   16  C18 NEO     1     -41.025  -0.597  41.732  1.00  0.00     0.296 C 
HETATM   17  C19 NEO     1     -40.365   0.625  42.413  1.00  0.00     0.303 C 
HETATM   18  C20 NEO     1     -41.312   1.231  43.474  1.00  0.00     0.187 C 
HETATM   19  C21 NEO     1     -41.911   0.138  44.386  1.00  0.00     0.179 C 
HETATM   20  C22 NEO     1     -42.448  -1.032  43.527  1.00  0.00     0.183 C 
HETATM   21  O9  NEO     1     -41.413  -1.551  42.709  1.00  0.00    -0.349 OA
BRANCH  17  22
HETATM   22  N5  NEO     1     -39.070   0.283  43.015  1.00  0.00     0.090 N 
HETATM   23  H41 NEO     1     -39.073  -0.709  43.344  1.00  0.00     0.313 HD
HETATM   24  H42 NEO     1     -38.328   0.361  42.281  1.00  0.00     0.313 HD
ENDBRANCH  17  22
BRANCH  18  25
HETATM   25  O11 NEO     1     -42.358   1.921  42.841  1.00  0.00    -0.391 OA
HETATM   26  H40 NEO     1     -42.615   1.390  42.043  1.00  0.00     0.210 HD
ENDBRANCH  18  25
BRANCH  19  27
HETATM   27  O10 NEO     1     -40.941  -0.333  45.286  1.00  0.00    -0.390 OA
HETATM   28  H39 NEO     1     -40.546   0.464  45.725  1.00  0.00     0.210 HD
ENDBRANCH  19  27
BRANCH  20  29
HETATM   29  C23 NEO     1     -43.008  -2.186  44.387  1.00  0.00     0.301 C 
BRANCH  29  30
HETATM   30  N4  NEO     1     -42.605  -3.503  43.898  1.00  0.00     0.080 N 
HETATM   31  H37 NEO     1     -42.481  -4.150  44.709  1.00  0.00     0.312 HD
HETATM   32  H38 NEO     1     -43.351  -3.891  43.276  1.00  0.00     0.312 HD
ENDBRANCH  29  30
ENDBRANCH  20  29
ENDBRANCH  15  16
ENDBRANCH  10  15
BRANCH  11  33
HETATM   33  C17 NEO     1     -38.544  -3.988  42.612  1.00  0.00     0.198 C 
BRANCH  33  34
HETATM   34  O7  NEO     1     -39.581  -3.795  43.537  1.00  0.00    -0.398 OA
HETATM   35  H29 NEO     1     -39.183  -3.888  44.442  1.00  0.00     0.209 HD
ENDBRANCH  33  34
ENDBRANCH  11  33
ENDBRANCH   7   8
ENDBRANCH   4   7
BRANCH   3  36
HETATM   36  O13 NEO     1     -35.672  -3.748  37.552  1.00  0.00    -0.391 OA
HETATM   37  H44 NEO     1     -34.784  -3.653  37.987  1.00  0.00     0.210 HD
ENDBRANCH   3  36
BRANCH   5  38
HETATM   38  O1  NEO     1     -38.589  -6.461  40.215  1.00  0.00    -0.349 OA
BRANCH  38  39
HETATM   39  C7  NEO     1     -39.560  -7.502  40.188  1.00  0.00     0.296 C 
HETATM   40  C8  NEO     1     -40.982  -6.910  40.185  1.00  0.00     0.303 C 
HETATM   41  C9  NEO     1     -41.240  -6.171  41.512  1.00  0.00     0.187 C 
HETATM   42  C10 NEO     1     -40.896  -7.071  42.717  1.00  0.00     0.179 C 
HETATM   43  C11 NEO     1     -39.479  -7.676  42.540  1.00  0.00     0.183 C 
HETATM   44  O2  NEO     1     -39.394  -8.368  41.300  1.00  0.00    -0.349 OA
BRANCH  40  45
HETATM   45  N3  NEO     1     -41.147  -5.999  39.050  1.00  0.00     0.090 N 
HETATM   46  H21 NEO     1     -40.650  -6.404  38.223  1.00  0.00     0.313 HD
HETATM   47  H22 NEO     1     -42.160  -5.981  38.791  1.00  0.00     0.313 HD
ENDBRANCH  40  45
BRANCH  41  48
HETATM   48  O4  NEO     1     -42.572  -5.723  41.587  1.00  0.00    -0.391 OA
HETATM   49  H20 NEO     1     -42.835  -5.409  40.682  1.00  0.00     0.210 HD
ENDBRANCH  41  48
BRANCH  42  50
HETATM   50  O3  NEO     1     -40.949  -6.302  43.890  1.00  0.00    -0.390 OA
HETATM   51  H19 NEO     1     -41.908  -6.135  44.084  1.00  0.00     0.210 HD
ENDBRANCH  42  50
BRANCH  43  52
HETATM   52  C12 NEO     1     -39.140  -8.696  43.652  1.00  0.00     0.301 C 
BRANCH  52  53
HETATM   53  N2  NEO     1     -40.322  -9.310  44.258  1.00  0.00     0.080 N 
HETATM   54  H17 NEO     1     -40.564  -8.812  45.142  1.00  0.00     0.312 HD
HETATM   55  H18 NEO     1     -40.133 -10.314  44.479  1.00  0.00     0.312 HD
ENDBRANCH  52  53
ENDBRANCH  43  52
ENDBRANCH  38  39
ENDBRANCH   5  38
BRANCH   2  56
HETATM   56  N6  NEO     1     -33.855  -5.946  37.151  1.00  0.00     0.085 N 
HETATM   57  H45 NEO     1     -34.309  -6.055  36.215  1.00  0.00     0.313 HD
HETATM   58  H46 NEO     1     -33.351  -5.028  37.150  1.00  0.00     0.313 HD
ENDBRANCH   2  56
BRANCH   6  59
HETATM   59  N1  NEO     1     -36.834  -8.789  39.831  1.00  0.00     0.085 N 
HETATM   60  H8  NEO     1     -37.061  -9.257  38.923  1.00  0.00     0.313 HD
HETATM   61  H9  NEO     1     -36.031  -9.307  40.259  1.00  0.00     0.313 HD
ENDBRANCH   6  59
TORSDOF 22
ENDMDL
