MODEL 1
REMARK VINA RESULT:    -8.116      0.000      0.000
REMARK INTER + INTRA:         -18.304
REMARK INTER:                 -14.283
REMARK INTRA:                  -4.021
REMARK UNBOUND:                -4.021
REMARK  17 active torsions:
REMARK  status: ('A' for Active; 'I' for Inactive)
REMARK    1  A    between atoms: C3_3  and  C21_38 
REMARK    2  A    between atoms: C3_3  and  O12_40 
REMARK    3  A    between atoms: C4_4  and  O6_25 
REMARK    4  A    between atoms: C5_5  and  O2_7 
REMARK    5  A    between atoms: O2_7  and  C6_8 
REMARK    6  A    between atoms: C7_9  and  N4_21 
REMARK    7  A    between atoms: C8_10  and  O5_20 
REMARK    8  A    between atoms: C9_11  and  N1_16 
REMARK    9  A    between atoms: C10_12  and  O4_15 
REMARK   10  A    between atoms: C11_13  and  O3_14 
REMARK       I    between atoms: N1_16  and  C12_17 
REMARK       I    between atoms: C12_17  and  N2_18 
REMARK       I    between atoms: C12_17  and  N3_19 
REMARK       I    between atoms: N4_21  and  C13_22 
REMARK       I    between atoms: C13_22  and  N5_23 
REMARK       I    between atoms: C13_22  and  N6_24 
REMARK   11  A    between atoms: O6_25  and  C14_26 
REMARK   12  A    between atoms: C15_27  and  N7_36 
REMARK   13  A    between atoms: C16_28  and  O10_35 
REMARK   14  A    between atoms: C17_29  and  O9_34 
REMARK   15  A    between atoms: C18_30  and  C19_32 
REMARK   16  A    between atoms: C19_32  and  O8_33 
REMARK   17  A    between atoms: C21_38  and  O11_39 
ROOT
HETATM    1  C6  STM     1     -40.820  -4.174  42.862  1.00  0.00     0.192 C 
HETATM    2  C7  STM     1     -39.901  -2.964  42.538  1.00  0.00     0.287 C 
HETATM    3  C8  STM     1     -40.726  -1.726  42.092  1.00  0.00     0.190 C 
HETATM    4  C9  STM     1     -41.792  -1.366  43.170  1.00  0.00     0.287 C 
HETATM    5  C10 STM     1     -42.693  -2.576  43.524  1.00  0.00     0.185 C 
HETATM    6  C11 STM     1     -41.837  -3.783  43.964  1.00  0.00     0.180 C 
ENDROOT
BRANCH   1   7
HETATM    7  O2  STM     1     -39.999  -5.247  43.304  1.00  0.00    -0.348 OA
BRANCH   7   8
HETATM    8  C5  STM     1     -40.095  -6.399  42.474  1.00  0.00     0.293 C 
HETATM    9  C4  STM     1     -38.691  -6.888  42.113  1.00  0.00     0.218 C 
HETATM   10  C3  STM     1     -38.376  -7.916  43.205  1.00  0.00     0.135 C 
HETATM   11  C2  STM     1     -39.764  -8.154  43.874  1.00  0.00     0.160 C 
HETATM   12  C1  STM     1     -40.208  -9.620  43.923  1.00  0.00     0.043 C 
HETATM   13  O1  STM     1     -40.745  -7.423  43.181  1.00  0.00    -0.350 OA
BRANCH   9  14
HETATM   14  O6  STM     1     -38.715  -7.511  40.833  1.00  0.00    -0.346 OA
BRANCH  14  15
HETATM   15  C14 STM     1     -38.302  -6.626  39.794  1.00  0.00     0.297 C 
HETATM   16  C15 STM     1     -37.083  -7.228  39.032  1.00  0.00     0.305 C 
HETATM   17  C16 STM     1     -36.840  -6.515  37.670  1.00  0.00     0.187 C 
HETATM   18  C17 STM     1     -37.616  -5.178  37.599  1.00  0.00     0.180 C 
HETATM   19  C18 STM     1     -39.127  -5.390  37.954  1.00  0.00     0.179 C 
HETATM   20  O7  STM     1     -39.380  -6.434  38.900  1.00  0.00    -0.349 OA
BRANCH  16  21
HETATM   21  N7  STM     1     -37.148  -8.704  38.855  1.00  0.00     0.091 N 
HETATM   22  C20 STM     1     -37.611  -9.155  37.531  1.00  0.00     0.307 C 
HETATM   23  H34 STM     1     -37.792  -9.102  39.574  1.00  0.00     0.316 HD
ENDBRANCH  16  21
BRANCH  17  24
HETATM   24  O10 STM     1     -35.463  -6.280  37.510  1.00  0.00    -0.391 OA
HETATM   25  H33 STM     1     -35.297  -5.336  37.767  1.00  0.00     0.210 HD
ENDBRANCH  17  24
BRANCH  18  26
HETATM   26  O9  STM     1     -37.486  -4.575  36.335  1.00  0.00    -0.390 OA
HETATM   27  H32 STM     1     -38.392  -4.357  36.002  1.00  0.00     0.210 HD
ENDBRANCH  18  26
BRANCH  19  28
HETATM   28  C19 STM     1     -39.776  -4.080  38.435  1.00  0.00     0.198 C 
BRANCH  28  29
HETATM   29  O8  STM     1     -38.798  -3.094  38.631  1.00  0.00    -0.398 OA
HETATM   30  H31 STM     1     -38.879  -2.444  37.881  1.00  0.00     0.209 HD
ENDBRANCH  28  29
ENDBRANCH  19  28
ENDBRANCH  14  15
ENDBRANCH   9  14
BRANCH  10  31
HETATM   31  C21 STM     1     -37.345  -7.359  44.225  1.00  0.00     0.207 C 
BRANCH  31  32
HETATM   32  O11 STM     1     -37.904  -6.343  45.013  1.00  0.00    -0.398 OA
HETATM   33  H6  STM     1     -38.802  -6.158  44.622  1.00  0.00     0.209 HD
ENDBRANCH  31  32
ENDBRANCH  10  31
BRANCH  10  34
HETATM   34  O12 STM     1     -37.848  -9.086  42.611  1.00  0.00    -0.382 OA
HETATM   35  H39 STM     1     -37.519  -9.680  43.330  1.00  0.00     0.210 HD
ENDBRANCH  10  34
ENDBRANCH   7   8
ENDBRANCH   1   7
BRANCH   2  36
HETATM   36  N4  STM     1     -38.803  -3.321  41.603  1.00  0.00     0.156 N 
HETATM   37  C13 STM     1     -37.425  -3.149  42.097  1.00  0.00     0.674 C 
HETATM   38  N5  STM     1     -36.512  -3.079  40.950  1.00  0.00     0.142 N 
HETATM   39  N6  STM     1     -37.045  -4.266  42.972  1.00  0.00     0.142 N 
HETATM   40  H20 STM     1     -35.568  -2.774  41.293  1.00  0.00     0.318 HD
HETATM   41  H21 STM     1     -36.849  -2.330  40.300  1.00  0.00     0.318 HD
HETATM   42  H22 STM     1     -36.495  -3.882  43.786  1.00  0.00     0.318 HD
HETATM   43  H23 STM     1     -36.414  -4.940  42.470  1.00  0.00     0.318 HD
HETATM   44  H3  STM     1     -38.929  -4.308  41.274  1.00  0.00     0.321 HD
ENDBRANCH   2  36
BRANCH   6  45
HETATM   45  O3  STM     1     -42.688  -4.869  44.226  1.00  0.00    -0.390 OA
HETATM   46  H13 STM     1     -43.291  -4.588  44.960  1.00  0.00     0.210 HD
ENDBRANCH   6  45
BRANCH   3  47
HETATM   47  O5  STM     1     -39.876  -0.628  41.859  1.00  0.00    -0.391 OA
HETATM   48  H19 STM     1     -39.800  -0.111  42.705  1.00  0.00     0.210 HD
ENDBRANCH   3  47
BRANCH   5  49
HETATM   49  O4  STM     1     -43.567  -2.241  44.574  1.00  0.00    -0.391 OA
HETATM   50  H14 STM     1     -44.005  -3.085  44.872  1.00  0.00     0.210 HD
ENDBRANCH   5  49
BRANCH   4  51
HETATM   51  N1  STM     1     -42.600  -0.158  42.867  1.00  0.00     0.156 N 
HETATM   52  C12 STM     1     -42.501   1.036  43.736  1.00  0.00     0.674 C 
HETATM   53  N2  STM     1     -41.110   1.383  44.027  1.00  0.00     0.142 N 
HETATM   54  N3  STM     1     -43.247   0.851  44.980  1.00  0.00     0.142 N 
HETATM   55  H15 STM     1     -41.100   2.230  44.648  1.00  0.00     0.318 HD
HETATM   56  H16 STM     1     -40.655   1.693  43.135  1.00  0.00     0.318 HD
HETATM   57  H17 STM     1     -43.230   1.750  45.509  1.00  0.00     0.318 HD
HETATM   58  H18 STM     1     -44.252   0.692  44.736  1.00  0.00     0.318 HD
HETATM   59  H1  STM     1     -43.605  -0.428  42.764  1.00  0.00     0.321 HD
ENDBRANCH   4  51
TORSDOF 17
ENDMDL
