@<TRIPOS>MOLECULE
*****
 69 71 0 0 0
SMALL
GASTEIGER

@<TRIPOS>ATOM
      1  C1         8.3148  -31.5319   -4.4481 C.3     1  TOB1       -0.0175
      2  N1         8.9424  -33.6368   -5.6480 N.3     1  TOB1       -0.3250
      3  O1        10.7218  -32.1515   -2.7131 O.3     1  TOB1       -0.3413
      4  C2         8.9484  -30.4493   -5.3587 C.3     1  TOB1        0.0355
      5  N2         9.0529  -32.8089    1.7613 N.3     1  TOB1       -0.3229
      6  O2        11.6889  -33.8802   -1.4298 O.3     1  TOB1       -0.3406
      7  C3        10.4456  -30.2018   -4.9981 C.3     1  TOB1        0.1051
      8  N3         7.5262  -29.8499   -0.1998 N.3     1  TOB1       -0.3276
      9  O3        10.7305  -36.8733   -0.8274 O.3     1  TOB1       -0.3924
     10  C4        11.2695  -31.5222   -4.9623 C.3     1  TOB1        0.1104
     11  N4        11.8798  -27.2208   -3.4502 N.3     1  TOB1       -0.3231
     12  O4        10.6177  -35.2383    1.8408 O.3     1  TOB1       -0.3875
     13  C5        10.6135  -32.6151   -4.0706 C.3     1  TOB1        0.1051
     14  N5         8.7869  -30.7765   -6.7881 N.3     1  TOB1       -0.3250
     15  O5        11.0831  -31.1453   -0.2313 O.3     1  TOB1       -0.3851
     16  C6         9.1123  -32.8603   -4.4044 C.3     1  TOB1        0.0355
     17  O6        11.4258  -32.0580   -6.2669 O.3     1  TOB1       -0.3865
     18  C7        10.5065  -33.0726   -1.6358 C.3     1  TOB1        0.1874
     19  O7        10.6187  -29.6341   -3.6726 O.3     1  TOB1       -0.3423
     20  C8        10.1795  -32.2299   -0.3749 C.3     1  TOB1        0.1234
     21  O8         9.7030  -28.7103   -1.7355 O.3     1  TOB1       -0.3427
     22  C9        10.2597  -33.0290    0.9434 C.3     1  TOB1        0.0647
     23  O9         8.0785  -25.5422   -0.9734 O.3     1  TOB1       -0.3891
     24  C10       10.4554  -34.5139    0.6381 C.3     1  TOB1        0.1012
     25  C11       11.7271  -34.7082   -0.2386 C.3     1  TOB1        0.1120
     26  C12       11.9676  -36.1763   -0.6654 C.3     1  TOB1        0.0730
     27  C13        9.7976  -28.5642   -3.1694 C.3     1  TOB1        0.1752
     28  C14       10.4064  -27.1739   -3.4901 C.3     1  TOB1        0.0590
     29  C15        9.8935  -26.1058   -2.4871 C.3     1  TOB1       -0.0044
     30  C16        8.5488  -26.5418   -1.8622 C.3     1  TOB1        0.0842
     31  C17        8.7139  -27.8697   -1.0851 C.3     1  TOB1        0.0998
     32  C18        7.3724  -28.6259   -0.9982 C.3     1  TOB1        0.0221
     33  H01        7.2861  -31.7259   -4.7613 H       1  TOB1        0.0297
     34  H02        8.2565  -31.1351   -3.4312 H       1  TOB1        0.0297
     35  H03        9.2612  -33.1030   -6.4528 H       1  TOB1        0.1185
     36  H04        9.4866  -34.4967   -5.6060 H       1  TOB1        0.1185
     37  H05        8.3866  -29.5253   -5.2228 H       1  TOB1        0.0485
     38  H06        9.1354  -33.3337    2.6304 H       1  TOB1        0.1186
     39  H07        8.9775  -31.8242    2.0095 H       1  TOB1        0.1186
     40  H08       10.8868  -29.5057   -5.7169 H       1  TOB1        0.0639
     41  H09        6.6655  -30.3926   -0.2166 H       1  TOB1        0.1183
     42  H10        8.2612  -30.4218   -0.6115 H       1  TOB1        0.1183
     43  H11       10.2300  -36.7550    0.0050 H       1  TOB1        0.2095
     44  H12       12.2648  -31.2981   -4.5673 H       1  TOB1        0.0646
     45  H13       12.1744  -27.5035   -2.5169 H       1  TOB1        0.1186
     46  H14       12.2058  -27.9516   -4.0797 H       1  TOB1        0.1186
     47  H15       10.9030  -36.1020    1.5200 H       1  TOB1        0.2100
     48  H16       11.1825  -33.5462   -4.1536 H       1  TOB1        0.0639
     49  H17        9.1619  -30.0231   -7.3610 H       1  TOB1        0.1185
     50  H18        9.3231  -31.6108   -7.0141 H       1  TOB1        0.1185
     51  H19       10.9110  -30.8120    0.6600 H       1  TOB1        0.2101
     52  H20        8.6758  -33.4714   -3.6129 H       1  TOB1        0.0485
     53  H21       10.7030  -32.7050   -6.3240 H       1  TOB1        0.2100
     54  H22        9.6695  -33.7431   -1.8763 H       1  TOB1        0.0937
     55  H23        9.1710  -31.8361   -0.5030 H       1  TOB1        0.0660
     56  H24       11.1274  -32.6950    1.5216 H       1  TOB1        0.0512
     57  H25        7.9400  -24.7590   -1.5200 H       1  TOB1        0.2099
     58  H26        9.5690  -34.8860    0.1158 H       1  TOB1        0.0636
     59  H27       12.5989  -34.3766    0.3338 H       1  TOB1        0.0646
     60  H28       12.5325  -36.2045   -1.6018 H       1  TOB1        0.0584
     61  H29       12.5562  -36.6806    0.1056 H       1  TOB1        0.0584
     62  H30        8.7755  -28.6563   -3.5543 H       1  TOB1        0.0926
     63  H31       10.0912  -26.8934   -4.4986 H       1  TOB1        0.0509
     64  H32        9.7876  -25.1449   -2.9960 H       1  TOB1        0.0308
     65  H33       10.6203  -25.9680   -1.6809 H       1  TOB1        0.0308
     66  H34        7.8151  -26.6710   -2.6634 H       1  TOB1        0.0620
     67  H35        9.0762  -27.6626   -0.0735 H       1  TOB1        0.0635
     68  H36        6.6189  -27.9855   -0.5317 H       1  TOB1        0.0448
     69  H37        7.0344  -28.8925   -2.0030 H       1  TOB1        0.0448
@<TRIPOS>BOND
     1    49    14    1
     2    50    14    1
     3    14     4    1
     4    17    53    1
     5    17    10    1
     6    40     7    1
     7    35     2    1
     8     2    36    1
     9     2    16    1
    10    10     7    1
    11    10    44    1
    12    10    13    1
    13     4     7    1
    14     4    37    1
    15     4     1    1
    16     7    19    1
    17    63    28    1
    18    33     1    1
    19    48    13    1
    20     1    16    1
    21     1    34    1
    22    16    13    1
    23    16    52    1
    24    13     3    1
    25    62    27    1
    26    19    27    1
    27    28    11    1
    28    28    27    1
    29    28    29    1
    30    11    46    1
    31    11    45    1
    32    27    21    1
    33    64    29    1
    34    66    30    1
    35     3    18    1
    36    29    30    1
    37    29    65    1
    38    69    32    1
    39    60    26    1
    40    54    18    1
    41    30    31    1
    42    30    23    1
    43    21    31    1
    44    18     6    1
    45    18    20    1
    46    57    23    1
    47    32    31    1
    48    32    68    1
    49    32     8    1
    50    31    67    1
    51     6    25    1
    52    26     9    1
    53    26    61    1
    54    26    25    1
    55     9    43    1
    56    55    20    1
    57    42     8    1
    58    20    15    1
    59    20    22    1
    60    25    59    1
    61    25    24    1
    62     8    41    1
    63    15    51    1
    64    58    24    1
    65    24    22    1
    66    24    12    1
    67    22    56    1
    68    22     5    1
    69    47    12    1
    70     5    39    1
    71     5    38    1
