@<TRIPOS>MOLECULE
*****
 46 49 0 0 0
SMALL
GASTEIGER

@<TRIPOS>ATOM
      1  C1       -29.0971   -8.1739   -5.7004 C.3     1  LEV1       -0.0410
      2  C2       -28.0207   -7.1485   -6.1180 C.3     1  LEV1        0.0658
      3  C3       -27.3699   -7.5776   -7.4550 C.3     1  LEV1        0.1101
      4  O1       -28.3223   -7.3540   -8.5150 O.3     1  LEV1       -0.4859
      5  C4       -28.8983   -6.1036   -8.5630 C.ar    1  LEV1        0.1684
      6  C5       -29.0310   -5.2840   -7.3823 C.ar    1  LEV1        0.0974
      7  N1       -28.5705   -5.7756   -6.1674 N.ar    1  LEV1       -0.3367
      8  C6       -28.6120   -5.0861   -4.9603 C.ar    1  LEV1        0.0233
      9  C7       -29.1571   -3.8079   -4.9562 C.ar    1  LEV1        0.1220
     10  C8       -29.6871   -3.1565   -6.1828 C.ar    1  LEV1        0.2036
     11  O2       -30.1668   -2.0385   -6.2156 O.2     1  LEV1       -0.2863
     12  C9       -29.5903   -3.9665   -7.3962 C.ar    1  LEV1        0.0524
     13  C10      -30.0367   -3.5118   -8.6934 C.ar    1  LEV1       -0.0116
     14  C11      -29.9226   -4.2775   -9.8489 C.ar    1  LEV1        0.1487
     15  C12      -29.3643   -5.5569   -9.8149 C.ar    1  LEV1        0.1098
     16  F1       -30.3662   -3.7508  -11.0064 F       1  LEV1       -0.2034
     17  N2       -29.2537   -6.3226  -10.9497 N.pl3   1  LEV1       -0.3224
     18  C13      -28.1856   -6.0209  -11.9203 C.3     1  LEV1        0.0252
     19  C14      -28.7745   -5.7300  -13.3198 C.3     1  LEV1        0.0144
     20  N3       -29.6366   -6.8369  -13.8241 N.3     1  LEV1       -0.3024
     21  C15      -30.1505   -7.7555  -12.7734 C.3     1  LEV1        0.0144
     22  C17      -29.0444   -7.5698  -14.9623 C.3     1  LEV1       -0.0126
     23  C16      -30.4581   -6.9978  -11.4646 C.3     1  LEV1        0.0252
     24  C18      -29.1755   -3.1297   -3.6316 C.2     1  LEV1        0.3420
     25  O3       -28.7512   -3.6278   -2.6074 O.2     1  LEV1       -0.2449
     26  O4       -29.6813   -1.9245   -3.5855 O.3     1  LEV1       -0.4770
     27  H20      -29.9681   -1.6926   -4.4939 H       1  LEV1        0.2954
     28  H        -28.6667   -9.1755   -5.6310 H       1  LEV1        0.0251
     29  H        -29.9140   -8.2001   -6.4256 H       1  LEV1        0.0251
     30  H        -29.5142   -7.9169   -4.7241 H       1  LEV1        0.0251
     31  H        -27.2315   -7.1750   -5.3606 H       1  LEV1        0.0559
     32  H        -26.4818   -6.9690   -7.6486 H       1  LEV1        0.0717
     33  H        -27.0854   -8.6335   -7.4366 H       1  LEV1        0.0717
     34  H        -28.2204   -5.6007   -4.0899 H       1  LEV1        0.0819
     35  H        -30.4784   -2.5201   -8.7552 H       1  LEV1        0.0654
     36  H        -27.6092   -5.1531  -11.5875 H       1  LEV1        0.0476
     37  H        -27.5074   -6.8767  -11.9821 H       1  LEV1        0.0476
     38  H        -29.3887   -4.8285  -13.2467 H       1  LEV1        0.0442
     39  H        -27.9639   -5.5205  -14.0236 H       1  LEV1        0.0442
     40  H        -29.3987   -8.5204  -12.5562 H       1  LEV1        0.0442
     41  H        -31.0539   -8.2550  -13.1339 H       1  LEV1        0.0442
     42  H        -28.7914   -6.8707  -15.7643 H       1  LEV1        0.0391
     43  H        -29.7615   -8.2994  -15.3487 H       1  LEV1        0.0391
     44  H        -28.1381   -8.0922  -14.6435 H       1  LEV1        0.0391
     45  H        -30.8189   -7.7091  -10.7166 H       1  LEV1        0.0476
     46  H        -31.2445   -6.2608  -11.6510 H       1  LEV1        0.0476
@<TRIPOS>BOND
     1     1     2    1
     2     1    28    1
     3     1    29    1
     4     1    30    1
     5     2     3    1
     6     2     7    1
     7     2    31    1
     8     3     4    1
     9     3    32    1
    10     3    33    1
    11     4     5    1
    12     5    15   ar
    13     5     6   ar
    14     6    12   ar
    15     6     7   ar
    16     7     8   ar
    17     8     9   ar
    18     8    34    1
    19     9    10   ar
    20     9    24    1
    21    10    12   ar
    22    10    11    2
    23    12    13   ar
    24    13    14   ar
    25    13    35    1
    26    14    16    1
    27    14    15   ar
    28    15    17    1
    29    17    18    1
    30    17    23    1
    31    18    19    1
    32    18    36    1
    33    18    37    1
    34    19    20    1
    35    19    38    1
    36    19    39    1
    37    20    22    1
    38    20    21    1
    39    21    23    1
    40    21    40    1
    41    21    41    1
    42    22    42    1
    43    22    43    1
    44    22    44    1
    45    23    45    1
    46    23    46    1
    47    24    26    1
    48    24    25    2
    49    26    27    1
