MODEL 1
REMARK VINA RESULT:    -4.140      0.000      0.000
REMARK INTER + INTRA:          -5.585
REMARK INTER:                  -5.350
REMARK INTRA:                  -0.235
REMARK UNBOUND:                -0.235
REMARK  5 active torsions:
REMARK  status: ('A' for Active; 'I' for Inactive)
REMARK    1  A    between atoms: C2_3  and  C7_10 
REMARK    2  A    between atoms: C7_10  and  C8_11 
REMARK    3  A    between atoms: C8_11  and  C9_12 
REMARK    4  A    between atoms: C9_12  and  C10_13 
REMARK    5  A    between atoms: C10_13  and  C11_14 
ROOT
HETATM    1  N1  BTN A 300      12.475   9.213  10.601  1.00 17.73    -0.217 NA
HETATM    2  S1  BTN A 300       9.847   9.759   8.652  1.00 16.59    -0.137 SA
HETATM    3  C2  BTN A 300      11.171   9.450   7.412  1.00 17.74     0.072 C 
HETATM    4  N2  BTN A 300      13.117  10.213   8.768  1.00 17.92    -0.217 NA
HETATM    5  C3  BTN A 300      13.131  10.274  10.119  1.00 17.95     0.360 A 
HETATM    6  O3  BTN A 300      13.687  11.201  10.746  1.00 17.93    -0.243 OA
HETATM    7  C4  BTN A 300      12.393   9.045   8.270  1.00 17.65     0.141 A 
HETATM    8  C5  BTN A 300      11.947   8.345   9.550  1.00 17.47     0.142 A 
HETATM    9  C6  BTN A 300      10.424   8.274   9.556  1.00 17.06     0.084 C 
ENDROOT
BRANCH   3  10
HETATM   10  C7  BTN A 300      11.555  10.487   6.436  1.00 18.33     0.013 C 
BRANCH  10  11
HETATM   11  C8  BTN A 300      12.015  10.179   5.013  1.00 19.24     0.002 C 
BRANCH  11  12
HETATM   12  C9  BTN A 300      11.132  10.686   3.945  1.00 20.09     0.011 C 
BRANCH  12  13
HETATM   13  C10 BTN A 300      10.080   9.630   3.459  1.00 20.77     0.098 C 
BRANCH  13  14
HETATM   14  C11 BTN A 300      10.129   9.461   1.982  1.00 21.57     0.185 C 
HETATM   15  O11 BTN A 300       9.934   8.397   1.379  1.00 21.65    -0.647 OA
HETATM   16  O12 BTN A 300      10.885  10.354   1.374  1.00 22.67    -0.647 OA
ENDBRANCH  13  14
ENDBRANCH  12  13
ENDBRANCH  11  12
ENDBRANCH  10  11
ENDBRANCH   3  10
TORSDOF 5
ENDMDL
MODEL 2
REMARK VINA RESULT:    -4.079      3.533      7.328
REMARK INTER + INTRA:          -5.506
REMARK INTER:                  -5.329
REMARK INTRA:                  -0.178
REMARK UNBOUND:                -0.235
REMARK  5 active torsions:
REMARK  status: ('A' for Active; 'I' for Inactive)
REMARK    1  A    between atoms: C2_3  and  C7_10 
REMARK    2  A    between atoms: C7_10  and  C8_11 
REMARK    3  A    between atoms: C8_11  and  C9_12 
REMARK    4  A    between atoms: C9_12  and  C10_13 
REMARK    5  A    between atoms: C10_13  and  C11_14 
ROOT
HETATM    1  N1  BTN A 300       9.459  11.080   1.346  1.00 17.73    -0.217 NA
HETATM    2  S1  BTN A 300      12.002  12.446   2.980  1.00 16.59    -0.137 SA
HETATM    3  C2  BTN A 300      11.784  10.862   3.890  1.00 17.74     0.072 C 
HETATM    4  N2  BTN A 300       9.352  10.533   3.458  1.00 17.92    -0.217 NA
HETATM    5  C3  BTN A 300       8.675  11.093   2.431  1.00 17.95     0.360 A 
HETATM    6  O3  BTN A 300       7.510  11.528   2.548  1.00 17.93    -0.243 OA
HETATM    7  C4  BTN A 300      10.700  10.115   3.077  1.00 17.65     0.141 A 
HETATM    8  C5  BTN A 300      10.774  10.495   1.602  1.00 17.47     0.142 A 
HETATM    9  C6  BTN A 300      11.909  11.496   1.417  1.00 17.06     0.084 C 
ENDROOT
BRANCH   3  10
HETATM   10  C7  BTN A 300      11.442  10.851   5.325  1.00 18.33     0.013 C 
BRANCH  10  11
HETATM   11  C8  BTN A 300      11.696   9.659   6.245  1.00 19.24     0.002 C 
BRANCH  11  12
HETATM   12  C9  BTN A 300      11.950  10.000   7.658  1.00 20.09     0.011 C 
BRANCH  12  13
HETATM   13  C10 BTN A 300      12.761   8.898   8.423  1.00 20.77     0.098 C 
BRANCH  13  14
HETATM   14  C11 BTN A 300      12.815   9.183   9.882  1.00 21.57     0.185 C 
HETATM   15  O11 BTN A 300      12.101   8.647  10.740  1.00 21.65    -0.647 OA
HETATM   16  O12 BTN A 300      13.282  10.383  10.167  1.00 22.67    -0.647 OA
ENDBRANCH  13  14
ENDBRANCH  12  13
ENDBRANCH  11  12
ENDBRANCH  10  11
ENDBRANCH   3  10
TORSDOF 5
ENDMDL
MODEL 3
REMARK VINA RESULT:    -3.963      1.429      1.682
REMARK INTER + INTRA:          -5.356
REMARK INTER:                  -5.179
REMARK INTRA:                  -0.177
REMARK UNBOUND:                -0.235
REMARK  5 active torsions:
REMARK  status: ('A' for Active; 'I' for Inactive)
REMARK    1  A    between atoms: C2_3  and  C7_10 
REMARK    2  A    between atoms: C7_10  and  C8_11 
REMARK    3  A    between atoms: C8_11  and  C9_12 
REMARK    4  A    between atoms: C9_12  and  C10_13 
REMARK    5  A    between atoms: C10_13  and  C11_14 
ROOT
HETATM    1  N1  BTN A 300      12.927   9.732  11.148  1.00 17.73    -0.217 NA
HETATM    2  S1  BTN A 300      10.256   9.723   9.182  1.00 16.59    -0.137 SA
HETATM    3  C2  BTN A 300      11.620   9.592   7.955  1.00 17.74     0.072 C 
HETATM    4  N2  BTN A 300      13.397  10.743   9.270  1.00 17.92    -0.217 NA
HETATM    5  C3  BTN A 300      13.391  10.868  10.616  1.00 17.95     0.360 A 
HETATM    6  O3  BTN A 300      13.775  11.905  11.198  1.00 17.93    -0.243 OA
HETATM    7  C4  BTN A 300      12.889   9.445   8.828  1.00 17.65     0.141 A 
HETATM    8  C5  BTN A 300      12.564   8.738  10.140  1.00 17.47     0.142 A 
HETATM    9  C6  BTN A 300      11.076   8.404  10.153  1.00 17.06     0.084 C 
ENDROOT
BRANCH   3  10
HETATM   10  C7  BTN A 300      11.825  10.633   6.931  1.00 18.33     0.013 C 
BRANCH  10  11
HETATM   11  C8  BTN A 300      10.980  10.750   5.664  1.00 19.24     0.002 C 
BRANCH  11  12
HETATM   12  C9  BTN A 300      11.716  10.560   4.400  1.00 20.09     0.011 C 
BRANCH  12  13
HETATM   13  C10 BTN A 300      10.921  11.055   3.142  1.00 20.77     0.098 C 
BRANCH  13  14
HETATM   14  C11 BTN A 300      11.795  11.830   2.222  1.00 21.57     0.185 C 
HETATM   15  O11 BTN A 300      12.293  11.394   1.175  1.00 21.65    -0.647 OA
HETATM   16  O12 BTN A 300      12.436  12.820   2.813  1.00 22.67    -0.647 OA
ENDBRANCH  13  14
ENDBRANCH  12  13
ENDBRANCH  11  12
ENDBRANCH  10  11
ENDBRANCH   3  10
TORSDOF 5
ENDMDL
MODEL 4
REMARK VINA RESULT:    -3.823      4.754      6.367
REMARK INTER + INTRA:          -5.175
REMARK INTER:                  -4.604
REMARK INTRA:                  -0.572
REMARK UNBOUND:                -0.235
REMARK  5 active torsions:
REMARK  status: ('A' for Active; 'I' for Inactive)
REMARK    1  A    between atoms: C2_3  and  C7_10 
REMARK    2  A    between atoms: C7_10  and  C8_11 
REMARK    3  A    between atoms: C8_11  and  C9_12 
REMARK    4  A    between atoms: C9_12  and  C10_13 
REMARK    5  A    between atoms: C10_13  and  C11_14 
ROOT
HETATM    1  N1  BTN A 300       7.535   7.663   3.509  1.00 17.73    -0.217 NA
HETATM    2  S1  BTN A 300       7.788  10.560   1.913  1.00 16.59    -0.137 SA
HETATM    3  C2  BTN A 300       9.236   9.642   1.247  1.00 17.74     0.072 C 
HETATM    4  N2  BTN A 300       9.642   8.148   3.200  1.00 17.92    -0.217 NA
HETATM    5  C3  BTN A 300       8.711   7.831   4.126  1.00 17.95     0.360 A 
HETATM    6  O3  BTN A 300       8.977   7.726   5.342  1.00 17.93    -0.243 OA
HETATM    7  C4  BTN A 300       9.085   8.225   1.851  1.00 17.65     0.141 A 
HETATM    8  C5  BTN A 300       7.614   7.884   2.067  1.00 17.47     0.142 A 
HETATM    9  C6  BTN A 300       6.771   9.068   1.606  1.00 17.06     0.084 C 
ENDROOT
BRANCH   3  10
HETATM   10  C7  BTN A 300      10.610  10.138   1.451  1.00 18.33     0.013 C 
BRANCH  10  11
HETATM   11  C8  BTN A 300      10.936  11.487   2.087  1.00 19.24     0.002 C 
BRANCH  11  12
HETATM   12  C9  BTN A 300      12.062  11.476   3.040  1.00 20.09     0.011 C 
BRANCH  12  13
HETATM   13  C10 BTN A 300      11.745  10.694   4.362  1.00 20.77     0.098 C 
BRANCH  13  14
HETATM   14  C11 BTN A 300      10.709  11.394   5.167  1.00 21.57     0.185 C 
HETATM   15  O11 BTN A 300       9.514  11.074   5.224  1.00 21.65    -0.647 OA
HETATM   16  O12 BTN A 300      10.993  12.659   5.406  1.00 22.67    -0.647 OA
ENDBRANCH  13  14
ENDBRANCH  12  13
ENDBRANCH  11  12
ENDBRANCH  10  11
ENDBRANCH   3  10
TORSDOF 5
ENDMDL
MODEL 5
REMARK VINA RESULT:    -3.775      2.600      2.973
REMARK INTER + INTRA:          -5.113
REMARK INTER:                  -4.780
REMARK INTRA:                  -0.333
REMARK UNBOUND:                -0.235
REMARK  5 active torsions:
REMARK  status: ('A' for Active; 'I' for Inactive)
REMARK    1  A    between atoms: C2_3  and  C7_10 
REMARK    2  A    between atoms: C7_10  and  C8_11 
REMARK    3  A    between atoms: C8_11  and  C9_12 
REMARK    4  A    between atoms: C9_12  and  C10_13 
REMARK    5  A    between atoms: C10_13  and  C11_14 
ROOT
HETATM    1  N1  BTN A 300      10.129   7.290   9.135  1.00 17.73    -0.217 NA
HETATM    2  S1  BTN A 300      12.656   9.340   8.489  1.00 16.59    -0.137 SA
HETATM    3  C2  BTN A 300      11.427   9.853   7.219  1.00 17.74     0.072 C 
HETATM    4  N2  BTN A 300      10.223   7.684   6.989  1.00 17.92    -0.217 NA
HETATM    5  C3  BTN A 300      10.208   6.714   7.930  1.00 17.95     0.360 A 
HETATM    6  O3  BTN A 300      10.260   5.498   7.646  1.00 17.93    -0.243 OA
HETATM    7  C4  BTN A 300      10.168   9.025   7.568  1.00 17.65     0.141 A 
HETATM    8  C5  BTN A 300      10.100   8.750   9.066  1.00 17.47     0.142 A 
HETATM    9  C6  BTN A 300      11.311   9.394   9.732  1.00 17.06     0.084 C 
ENDROOT
BRANCH   3  10
HETATM   10  C7  BTN A 300      11.729   9.740   5.780  1.00 18.33     0.013 C 
BRANCH  10  11
HETATM   11  C8  BTN A 300      11.523  10.876   4.781  1.00 19.24     0.002 C 
BRANCH  11  12
HETATM   12  C9  BTN A 300      11.198  10.450   3.406  1.00 20.09     0.011 C 
BRANCH  12  13
HETATM   13  C10 BTN A 300       9.680  10.110   3.207  1.00 20.77     0.098 C 
BRANCH  13  14
HETATM   14  C11 BTN A 300       9.503   8.736   2.664  1.00 21.57     0.185 C 
HETATM   15  O11 BTN A 300       9.381   7.710   3.347  1.00 21.65    -0.647 OA
HETATM   16  O12 BTN A 300       9.991   8.583   1.449  1.00 22.67    -0.647 OA
ENDBRANCH  13  14
ENDBRANCH  12  13
ENDBRANCH  11  12
ENDBRANCH  10  11
ENDBRANCH   3  10
TORSDOF 5
ENDMDL
MODEL 6
REMARK VINA RESULT:    -3.678      1.776      1.967
REMARK INTER + INTRA:          -4.988
REMARK INTER:                  -4.802
REMARK INTRA:                  -0.186
REMARK UNBOUND:                -0.235
REMARK  5 active torsions:
REMARK  status: ('A' for Active; 'I' for Inactive)
REMARK    1  A    between atoms: C2_3  and  C7_10 
REMARK    2  A    between atoms: C7_10  and  C8_11 
REMARK    3  A    between atoms: C8_11  and  C9_12 
REMARK    4  A    between atoms: C9_12  and  C10_13 
REMARK    5  A    between atoms: C10_13  and  C11_14 
ROOT
HETATM    1  N1  BTN A 300      13.037  10.189  10.810  1.00 17.73    -0.217 NA
HETATM    2  S1  BTN A 300      10.141   9.017   9.694  1.00 16.59    -0.137 SA
HETATM    3  C2  BTN A 300      11.322   8.317   8.469  1.00 17.74     0.072 C 
HETATM    4  N2  BTN A 300      13.085  10.070   8.629  1.00 17.92    -0.217 NA
HETATM    5  C3  BTN A 300      13.254  10.889   9.691  1.00 17.95     0.360 A 
HETATM    6  O3  BTN A 300      13.565  12.094   9.570  1.00 17.93    -0.243 OA
HETATM    7  C4  BTN A 300      12.710   8.714   9.025  1.00 17.65     0.141 A 
HETATM    8  C5  BTN A 300      12.678   8.797  10.548  1.00 17.47     0.142 A 
HETATM    9  C6  BTN A 300      11.270   8.453  11.021  1.00 17.06     0.084 C 
ENDROOT
BRANCH   3  10
HETATM   10  C7  BTN A 300      11.228   8.665   7.039  1.00 18.33     0.013 C 
BRANCH  10  11
HETATM   11  C8  BTN A 300       9.911   8.724   6.267  1.00 19.24     0.002 C 
BRANCH  11  12
HETATM   12  C9  BTN A 300       9.784   7.749   5.167  1.00 20.09     0.011 C 
BRANCH  12  13
HETATM   13  C10 BTN A 300       8.403   7.827   4.430  1.00 20.77     0.098 C 
BRANCH  13  14
HETATM   14  C11 BTN A 300       8.583   8.036   2.968  1.00 21.57     0.185 C 
HETATM   15  O11 BTN A 300       7.908   7.494   2.082  1.00 21.65    -0.647 OA
HETATM   16  O12 BTN A 300       9.803   8.410   2.636  1.00 22.67    -0.647 OA
ENDBRANCH  13  14
ENDBRANCH  12  13
ENDBRANCH  11  12
ENDBRANCH  10  11
ENDBRANCH   3  10
TORSDOF 5
ENDMDL
MODEL 7
REMARK VINA RESULT:    -3.660     14.449     15.710
REMARK INTER + INTRA:          -4.964
REMARK INTER:                  -4.795
REMARK INTRA:                  -0.169
REMARK UNBOUND:                -0.235
REMARK  5 active torsions:
REMARK  status: ('A' for Active; 'I' for Inactive)
REMARK    1  A    between atoms: C2_3  and  C7_10 
REMARK    2  A    between atoms: C7_10  and  C8_11 
REMARK    3  A    between atoms: C8_11  and  C9_12 
REMARK    4  A    between atoms: C9_12  and  C10_13 
REMARK    5  A    between atoms: C10_13  and  C11_14 
ROOT
HETATM    1  N1  BTN A 300       8.086  -7.824   2.502  1.00 17.73    -0.217 NA
HETATM    2  S1  BTN A 300      10.763  -5.873   2.331  1.00 16.59    -0.137 SA
HETATM    3  C2  BTN A 300       9.973  -5.285   3.885  1.00 17.74     0.072 C 
HETATM    4  N2  BTN A 300       7.614  -5.858   3.327  1.00 17.92    -0.217 NA
HETATM    5  C3  BTN A 300       7.248  -6.786   2.414  1.00 17.95     0.360 A 
HETATM    6  O3  BTN A 300       6.272  -6.630   1.649  1.00 17.93    -0.243 OA
HETATM    7  C4  BTN A 300       8.792  -6.262   4.092  1.00 17.65     0.141 A 
HETATM    8  C5  BTN A 300       9.120  -7.636   3.517  1.00 17.47     0.142 A 
HETATM    9  C6  BTN A 300      10.525  -7.589   2.925  1.00 17.06     0.084 C 
ENDROOT
BRANCH   3  10
HETATM   10  C7  BTN A 300       9.511  -3.891   4.022  1.00 18.33     0.013 C 
BRANCH  10  11
HETATM   11  C8  BTN A 300       9.577  -3.103   5.329  1.00 19.24     0.002 C 
BRANCH  11  12
HETATM   12  C9  BTN A 300       8.958  -1.765   5.287  1.00 20.09     0.011 C 
BRANCH  12  13
HETATM   13  C10 BTN A 300       9.132  -0.961   6.622  1.00 20.77     0.098 C 
BRANCH  13  14
HETATM   14  C11 BTN A 300       8.133   0.136   6.725  1.00 21.57     0.185 C 
HETATM   15  O11 BTN A 300       8.379   1.341   6.580  1.00 21.65    -0.647 OA
HETATM   16  O12 BTN A 300       7.093  -0.168   7.477  1.00 22.67    -0.647 OA
ENDBRANCH  13  14
ENDBRANCH  12  13
ENDBRANCH  11  12
ENDBRANCH  10  11
ENDBRANCH   3  10
TORSDOF 5
ENDMDL
MODEL 8
REMARK VINA RESULT:    -3.624     11.355     12.160
REMARK INTER + INTRA:          -4.918
REMARK INTER:                  -4.683
REMARK INTRA:                  -0.234
REMARK UNBOUND:                -0.235
REMARK  5 active torsions:
REMARK  status: ('A' for Active; 'I' for Inactive)
REMARK    1  A    between atoms: C2_3  and  C7_10 
REMARK    2  A    between atoms: C7_10  and  C8_11 
REMARK    3  A    between atoms: C8_11  and  C9_12 
REMARK    4  A    between atoms: C9_12  and  C10_13 
REMARK    5  A    between atoms: C10_13  and  C11_14 
ROOT
HETATM    1  N1  BTN A 300       8.746   0.112  10.014  1.00 17.73    -0.217 NA
HETATM    2  S1  BTN A 300       6.538  -0.105   7.548  1.00 16.59    -0.137 SA
HETATM    3  C2  BTN A 300       7.833  -1.289   6.993  1.00 17.74     0.072 C 
HETATM    4  N2  BTN A 300       9.787  -0.239   8.127  1.00 17.92    -0.217 NA
HETATM    5  C3  BTN A 300       9.700   0.577   9.200  1.00 17.95     0.360 A 
HETATM    6  O3  BTN A 300      10.428   1.583   9.343  1.00 17.93    -0.243 OA
HETATM    7  C4  BTN A 300       8.823  -1.336   8.180  1.00 17.65     0.141 A 
HETATM    8  C5  BTN A 300       8.098  -1.093   9.499  1.00 17.47     0.142 A 
HETATM    9  C6  BTN A 300       6.616  -0.883   9.204  1.00 17.06     0.084 C 
ENDROOT
BRANCH   3  10
HETATM   10  C7  BTN A 300       8.563  -1.078   5.728  1.00 18.33     0.013 C 
BRANCH  10  11
HETATM   11  C8  BTN A 300       9.409  -2.155   5.052  1.00 19.24     0.002 C 
BRANCH  11  12
HETATM   12  C9  BTN A 300       8.756  -3.471   4.913  1.00 20.09     0.011 C 
BRANCH  12  13
HETATM   13  C10 BTN A 300       9.770  -4.640   4.665  1.00 20.77     0.098 C 
BRANCH  13  14
HETATM   14  C11 BTN A 300       9.726  -5.103   3.252  1.00 21.57     0.185 C 
HETATM   15  O11 BTN A 300       8.775  -5.696   2.726  1.00 21.65    -0.647 OA
HETATM   16  O12 BTN A 300      10.918  -5.317   2.730  1.00 22.67    -0.647 OA
ENDBRANCH  13  14
ENDBRANCH  12  13
ENDBRANCH  11  12
ENDBRANCH  10  11
ENDBRANCH   3  10
TORSDOF 5
ENDMDL
MODEL 9
REMARK VINA RESULT:    -3.610      2.543      6.473
REMARK INTER + INTRA:          -4.900
REMARK INTER:                  -4.506
REMARK INTRA:                  -0.394
REMARK UNBOUND:                -0.235
REMARK  5 active torsions:
REMARK  status: ('A' for Active; 'I' for Inactive)
REMARK    1  A    between atoms: C2_3  and  C7_10 
REMARK    2  A    between atoms: C7_10  and  C8_11 
REMARK    3  A    between atoms: C8_11  and  C9_12 
REMARK    4  A    between atoms: C9_12  and  C10_13 
REMARK    5  A    between atoms: C10_13  and  C11_14 
ROOT
HETATM    1  N1  BTN A 300       9.997  11.654   3.701  1.00 17.73    -0.217 NA
HETATM    2  S1  BTN A 300      10.149  11.448   7.008  1.00 16.59    -0.137 SA
HETATM    3  C2  BTN A 300      11.516  10.325   6.502  1.00 17.74     0.072 C 
HETATM    4  N2  BTN A 300      10.616   9.642   4.282  1.00 17.92    -0.217 NA
HETATM    5  C3  BTN A 300       9.713  10.353   3.571  1.00 17.95     0.360 A 
HETATM    6  O3  BTN A 300       8.791   9.815   2.921  1.00 17.93    -0.243 OA
HETATM    7  C4  BTN A 300      11.585  10.495   4.966  1.00 17.65     0.141 A 
HETATM    8  C5  BTN A 300      11.155  11.901   4.559  1.00 17.47     0.142 A 
HETATM    9  C6  BTN A 300      10.797  12.681   5.819  1.00 17.06     0.084 C 
ENDROOT
BRANCH   3  10
HETATM   10  C7  BTN A 300      11.493   8.893   6.855  1.00 18.33     0.013 C 
BRANCH  10  11
HETATM   11  C8  BTN A 300      11.921   8.351   8.218  1.00 19.24     0.002 C 
BRANCH  11  12
HETATM   12  C9  BTN A 300      13.069   9.043   8.836  1.00 20.09     0.011 C 
BRANCH  12  13
HETATM   13  C10 BTN A 300      12.662   9.953  10.046  1.00 20.77     0.098 C 
BRANCH  13  14
HETATM   14  C11 BTN A 300      12.995  11.379   9.784  1.00 21.57     0.185 C 
HETATM   15  O11 BTN A 300      14.124  11.878   9.885  1.00 21.65    -0.647 OA
HETATM   16  O12 BTN A 300      11.972  12.196   9.941  1.00 22.67    -0.647 OA
ENDBRANCH  13  14
ENDBRANCH  12  13
ENDBRANCH  11  12
ENDBRANCH  10  11
ENDBRANCH   3  10
TORSDOF 5
ENDMDL
