MODEL 1
REMARK VINA RESULT:    -3.422      0.000      0.000
REMARK INTER + INTRA:          -4.923
REMARK INTER:                  -4.422
REMARK INTRA:                  -0.502
REMARK UNBOUND:                -0.502
REMARK  5 active torsions:
REMARK  status: ('A' for Active; 'I' for Inactive)
REMARK    1  A    between atoms: C2_3  and  C7_10 
REMARK    2  A    between atoms: C7_10  and  C8_11 
REMARK    3  A    between atoms: C8_11  and  C9_12 
REMARK    4  A    between atoms: C9_12  and  C10_13 
REMARK    5  A    between atoms: C10_13  and  C11_14 
ROOT
HETATM    1  N1  BTN A 300      24.910  12.238 -10.620  1.00 17.73    -0.217 NA
HETATM    2  S1  BTN A 300      23.372  14.843 -11.979  1.00 16.59    -0.137 SA
HETATM    3  C2  BTN A 300      22.012  13.607 -11.905  1.00 17.74     0.072 C 
HETATM    4  N2  BTN A 300      23.398  11.541 -12.034  1.00 17.92    -0.217 NA
HETATM    5  C3  BTN A 300      24.707  11.476 -11.700  1.00 17.95     0.360 A 
HETATM    6  O3  BTN A 300      25.533  10.793 -12.342  1.00 17.93    -0.243 OA
HETATM    7  C4  BTN A 300      22.638  12.415 -11.143  1.00 17.65     0.141 A 
HETATM    8  C5  BTN A 300      23.692  12.900 -10.154  1.00 17.47     0.142 A 
HETATM    9  C6  BTN A 300      23.778  14.419 -10.245  1.00 17.06     0.084 C 
ENDROOT
BRANCH   3  10
HETATM   10  C7  BTN A 300      21.347  13.133 -13.133  1.00 18.33     0.013 C 
BRANCH  10  11
HETATM   11  C8  BTN A 300      21.635  13.699 -14.522  1.00 19.24     0.002 C 
BRANCH  11  12
HETATM   12  C9  BTN A 300      21.825  12.691 -15.583  1.00 20.09     0.011 C 
BRANCH  12  13
HETATM   13  C10 BTN A 300      23.308  12.593 -16.083  1.00 20.77     0.098 C 
BRANCH  13  14
HETATM   14  C11 BTN A 300      23.929  11.304 -15.677  1.00 21.57     0.185 C 
HETATM   15  O11 BTN A 300      24.978  10.840 -16.143  1.00 21.65    -0.647 OA
HETATM   16  O12 BTN A 300      23.066  10.435 -15.186  1.00 22.67    -0.647 OA
ENDBRANCH  13  14
ENDBRANCH  12  13
ENDBRANCH  11  12
ENDBRANCH  10  11
ENDBRANCH   3  10
TORSDOF 5
ENDMDL
MODEL 2
REMARK VINA RESULT:    -3.392     12.548     14.090
REMARK INTER + INTRA:          -4.885
REMARK INTER:                  -4.675
REMARK INTRA:                  -0.209
REMARK UNBOUND:                -0.502
REMARK  5 active torsions:
REMARK  status: ('A' for Active; 'I' for Inactive)
REMARK    1  A    between atoms: C2_3  and  C7_10 
REMARK    2  A    between atoms: C7_10  and  C8_11 
REMARK    3  A    between atoms: C8_11  and  C9_12 
REMARK    4  A    between atoms: C9_12  and  C10_13 
REMARK    5  A    between atoms: C10_13  and  C11_14 
ROOT
HETATM    1  N1  BTN A 300       7.075  14.433 -13.193  1.00 17.73    -0.217 NA
HETATM    2  S1  BTN A 300       8.303  17.488 -12.791  1.00 16.59    -0.137 SA
HETATM    3  C2  BTN A 300       9.839  16.478 -12.869  1.00 17.74     0.072 C 
HETATM    4  N2  BTN A 300       8.903  14.337 -12.001  1.00 17.92    -0.217 NA
HETATM    5  C3  BTN A 300       7.593  14.007 -12.035  1.00 17.95     0.360 A 
HETATM    6  O3  BTN A 300       7.026  13.399 -11.102  1.00 17.93    -0.243 OA
HETATM    7  C4  BTN A 300       9.329  15.056 -13.201  1.00 17.65     0.141 A 
HETATM    8  C5  BTN A 300       8.053  15.120 -14.034  1.00 17.47     0.142 A 
HETATM    9  C6  BTN A 300       7.701  16.586 -14.267  1.00 17.06     0.084 C 
ENDROOT
BRANCH   3  10
HETATM   10  C7  BTN A 300      10.775  16.429 -11.730  1.00 18.33     0.013 C 
BRANCH  10  11
HETATM   11  C8  BTN A 300      12.207  15.910 -11.834  1.00 19.24     0.002 C 
BRANCH  11  12
HETATM   12  C9  BTN A 300      13.150  16.468 -10.846  1.00 20.09     0.011 C 
BRANCH  12  13
HETATM   13  C10 BTN A 300      14.588  15.849 -10.946  1.00 20.77     0.098 C 
BRANCH  13  14
HETATM   14  C11 BTN A 300      14.851  14.913  -9.821  1.00 21.57     0.185 C 
HETATM   15  O11 BTN A 300      14.619  15.150  -8.627  1.00 21.65    -0.647 OA
HETATM   16  O12 BTN A 300      15.804  14.038 -10.075  1.00 22.67    -0.647 OA
ENDBRANCH  13  14
ENDBRANCH  12  13
ENDBRANCH  11  12
ENDBRANCH  10  11
ENDBRANCH   3  10
TORSDOF 5
ENDMDL
MODEL 3
REMARK VINA RESULT:    -3.371     15.412     16.692
REMARK INTER + INTRA:          -4.858
REMARK INTER:                  -4.454
REMARK INTRA:                  -0.404
REMARK UNBOUND:                -0.502
REMARK  5 active torsions:
REMARK  status: ('A' for Active; 'I' for Inactive)
REMARK    1  A    between atoms: C2_3  and  C7_10 
REMARK    2  A    between atoms: C7_10  and  C8_11 
REMARK    3  A    between atoms: C8_11  and  C9_12 
REMARK    4  A    between atoms: C9_12  and  C10_13 
REMARK    5  A    between atoms: C10_13  and  C11_14 
ROOT
HETATM    1  N1  BTN A 300       5.602  13.731  -9.238  1.00 17.73    -0.217 NA
HETATM    2  S1  BTN A 300       4.152  14.239 -12.178  1.00 16.59    -0.137 SA
HETATM    3  C2  BTN A 300       5.917  14.049 -12.662  1.00 17.74     0.072 C 
HETATM    4  N2  BTN A 300       6.957  14.842 -10.541  1.00 17.92    -0.217 NA
HETATM    5  C3  BTN A 300       6.338  14.843  -9.340  1.00 17.95     0.360 A 
HETATM    6  O3  BTN A 300       6.479  15.766  -8.509  1.00 17.93    -0.243 OA
HETATM    7  C4  BTN A 300       6.624  13.665 -11.340  1.00 17.65     0.141 A 
HETATM    8  C5  BTN A 300       5.679  12.887 -10.429  1.00 17.47     0.142 A 
HETATM    9  C6  BTN A 300       4.336  12.744 -11.136  1.00 17.06     0.084 C 
ENDROOT
BRANCH   3  10
HETATM   10  C7  BTN A 300       6.645  15.146 -13.327  1.00 18.33     0.013 C 
BRANCH  10  11
HETATM   11  C8  BTN A 300       7.987  14.965 -14.032  1.00 19.24     0.002 C 
BRANCH  11  12
HETATM   12  C9  BTN A 300       9.048  15.901 -13.611  1.00 20.09     0.011 C 
BRANCH  12  13
HETATM   13  C10 BTN A 300      10.032  15.285 -12.556  1.00 20.77     0.098 C 
BRANCH  13  14
HETATM   14  C11 BTN A 300      10.719  16.347 -11.776  1.00 21.57     0.185 C 
HETATM   15  O11 BTN A 300      11.935  16.583 -11.808  1.00 21.65    -0.647 OA
HETATM   16  O12 BTN A 300      10.081  16.687 -10.673  1.00 22.67    -0.647 OA
ENDBRANCH  13  14
ENDBRANCH  12  13
ENDBRANCH  11  12
ENDBRANCH  10  11
ENDBRANCH   3  10
TORSDOF 5
ENDMDL
MODEL 4
REMARK VINA RESULT:    -3.337     16.500     17.993
REMARK INTER + INTRA:          -4.815
REMARK INTER:                  -4.636
REMARK INTRA:                  -0.179
REMARK UNBOUND:                -0.502
REMARK  5 active torsions:
REMARK  status: ('A' for Active; 'I' for Inactive)
REMARK    1  A    between atoms: C2_3  and  C7_10 
REMARK    2  A    between atoms: C7_10  and  C8_11 
REMARK    3  A    between atoms: C8_11  and  C9_12 
REMARK    4  A    between atoms: C9_12  and  C10_13 
REMARK    5  A    between atoms: C10_13  and  C11_14 
ROOT
HETATM    1  N1  BTN A 300       8.936  15.071 -13.136  1.00 17.73    -0.217 NA
HETATM    2  S1  BTN A 300       5.639  14.780 -13.352  1.00 16.59    -0.137 SA
HETATM    3  C2  BTN A 300       5.930  14.394 -11.577  1.00 17.74     0.072 C 
HETATM    4  N2  BTN A 300       8.249  13.503 -11.780  1.00 17.92    -0.217 NA
HETATM    5  C3  BTN A 300       9.089  13.786 -12.801  1.00 17.95     0.360 A 
HETATM    6  O3  BTN A 300       9.857  12.934 -13.297  1.00 17.93    -0.243 OA
HETATM    7  C4  BTN A 300       7.443  14.657 -11.386  1.00 17.65     0.141 A 
HETATM    8  C5  BTN A 300       7.925  15.753 -12.331  1.00 17.47     0.142 A 
HETATM    9  C6  BTN A 300       6.738  16.233 -13.160  1.00 17.06     0.084 C 
ENDROOT
BRANCH   3  10
HETATM   10  C7  BTN A 300       5.567  13.079 -11.016  1.00 18.33     0.013 C 
BRANCH  10  11
HETATM   11  C8  BTN A 300       4.224  12.786 -10.352  1.00 19.24     0.002 C 
BRANCH  11  12
HETATM   12  C9  BTN A 300       4.302  12.041  -9.080  1.00 20.09     0.011 C 
BRANCH  12  13
HETATM   13  C10 BTN A 300       3.838  12.883  -7.842  1.00 20.77     0.098 C 
BRANCH  13  14
HETATM   14  C11 BTN A 300       4.423  12.354  -6.581  1.00 21.57     0.185 C 
HETATM   15  O11 BTN A 300       4.119  11.277  -6.050  1.00 21.65    -0.647 OA
HETATM   16  O12 BTN A 300       4.892  13.294  -5.783  1.00 22.67    -0.647 OA
ENDBRANCH  13  14
ENDBRANCH  12  13
ENDBRANCH  11  12
ENDBRANCH  10  11
ENDBRANCH   3  10
TORSDOF 5
ENDMDL
MODEL 5
REMARK VINA RESULT:    -3.330     10.632     11.694
REMARK INTER + INTRA:          -4.806
REMARK INTER:                  -4.525
REMARK INTRA:                  -0.280
REMARK UNBOUND:                -0.502
REMARK  5 active torsions:
REMARK  status: ('A' for Active; 'I' for Inactive)
REMARK    1  A    between atoms: C2_3  and  C7_10 
REMARK    2  A    between atoms: C7_10  and  C8_11 
REMARK    3  A    between atoms: C8_11  and  C9_12 
REMARK    4  A    between atoms: C9_12  and  C10_13 
REMARK    5  A    between atoms: C10_13  and  C11_14 
ROOT
HETATM    1  N1  BTN A 300      16.130  16.203  -9.441  1.00 17.73    -0.217 NA
HETATM    2  S1  BTN A 300      14.511  17.375 -12.088  1.00 16.59    -0.137 SA
HETATM    3  C2  BTN A 300      13.280  17.648 -10.749  1.00 17.74     0.072 C 
HETATM    4  N2  BTN A 300      13.993  15.809  -9.226  1.00 17.92    -0.217 NA
HETATM    5  C3  BTN A 300      15.221  15.245  -9.232  1.00 17.95     0.360 A 
HETATM    6  O3  BTN A 300      15.400  14.020  -9.061  1.00 17.93    -0.243 OA
HETATM    7  C4  BTN A 300      14.040  17.251  -9.461  1.00 17.65     0.141 A 
HETATM    8  C5  BTN A 300      15.533  17.527  -9.609  1.00 17.47     0.142 A 
HETATM    9  C6  BTN A 300      15.782  18.112 -10.995  1.00 17.06     0.084 C 
ENDROOT
BRANCH   3  10
HETATM   10  C7  BTN A 300      11.960  16.990 -10.784  1.00 18.33     0.013 C 
BRANCH  10  11
HETATM   11  C8  BTN A 300      11.473  16.134 -11.951  1.00 19.24     0.002 C 
BRANCH  11  12
HETATM   12  C9  BTN A 300      10.027  16.218 -12.230  1.00 20.09     0.011 C 
BRANCH  12  13
HETATM   13  C10 BTN A 300       9.546  15.192 -13.314  1.00 20.77     0.098 C 
BRANCH  13  14
HETATM   14  C11 BTN A 300       9.393  13.830 -12.736  1.00 21.57     0.185 C 
HETATM   15  O11 BTN A 300       9.578  12.770 -13.349  1.00 21.65    -0.647 OA
HETATM   16  O12 BTN A 300       8.563  13.783 -11.712  1.00 22.67    -0.647 OA
ENDBRANCH  13  14
ENDBRANCH  12  13
ENDBRANCH  11  12
ENDBRANCH  10  11
ENDBRANCH   3  10
TORSDOF 5
ENDMDL
MODEL 6
REMARK VINA RESULT:    -3.288     15.693     17.114
REMARK INTER + INTRA:          -4.750
REMARK INTER:                  -4.157
REMARK INTRA:                  -0.593
REMARK UNBOUND:                -0.502
REMARK  5 active torsions:
REMARK  status: ('A' for Active; 'I' for Inactive)
REMARK    1  A    between atoms: C2_3  and  C7_10 
REMARK    2  A    between atoms: C7_10  and  C8_11 
REMARK    3  A    between atoms: C8_11  and  C9_12 
REMARK    4  A    between atoms: C9_12  and  C10_13 
REMARK    5  A    between atoms: C10_13  and  C11_14 
ROOT
HETATM    1  N1  BTN A 300       8.295  17.281 -14.459  1.00 17.73    -0.217 NA
HETATM    2  S1  BTN A 300       8.425  16.493 -11.240  1.00 16.59    -0.137 SA
HETATM    3  C2  BTN A 300       8.834  14.884 -12.033  1.00 17.74     0.072 C 
HETATM    4  N2  BTN A 300       7.617  15.224 -14.180  1.00 17.92    -0.217 NA
HETATM    5  C3  BTN A 300       7.288  16.432 -14.689  1.00 17.95     0.360 A 
HETATM    6  O3  BTN A 300       6.201  16.645 -15.270  1.00 17.93    -0.243 OA
HETATM    7  C4  BTN A 300       8.930  15.228 -13.538  1.00 17.65     0.141 A 
HETATM    8  C5  BTN A 300       9.405  16.664 -13.735  1.00 17.47     0.142 A 
HETATM    9  C6  BTN A 300       9.632  17.290 -12.363  1.00 17.06     0.084 C 
ENDROOT
BRANCH   3  10
HETATM   10  C7  BTN A 300       7.978  13.699 -11.835  1.00 18.33     0.013 C 
BRANCH  10  11
HETATM   11  C8  BTN A 300       7.162  13.448 -10.569  1.00 19.24     0.002 C 
BRANCH  11  12
HETATM   12  C9  BTN A 300       5.766  13.028 -10.796  1.00 20.09     0.011 C 
BRANCH  12  13
HETATM   13  C10 BTN A 300       5.131  13.662 -12.082  1.00 20.77     0.098 C 
BRANCH  13  14
HETATM   14  C11 BTN A 300       4.466  14.956 -11.773  1.00 21.57     0.185 C 
HETATM   15  O11 BTN A 300       4.765  16.049 -12.273  1.00 21.65    -0.647 OA
HETATM   16  O12 BTN A 300       3.900  14.986 -10.582  1.00 22.67    -0.647 OA
ENDBRANCH  13  14
ENDBRANCH  12  13
ENDBRANCH  11  12
ENDBRANCH  10  11
ENDBRANCH   3  10
TORSDOF 5
ENDMDL
MODEL 7
REMARK VINA RESULT:    -3.285     13.797     15.202
REMARK INTER + INTRA:          -4.748
REMARK INTER:                  -4.510
REMARK INTRA:                  -0.238
REMARK UNBOUND:                -0.502
REMARK  5 active torsions:
REMARK  status: ('A' for Active; 'I' for Inactive)
REMARK    1  A    between atoms: C2_3  and  C7_10 
REMARK    2  A    between atoms: C7_10  and  C8_11 
REMARK    3  A    between atoms: C8_11  and  C9_12 
REMARK    4  A    between atoms: C9_12  and  C10_13 
REMARK    5  A    between atoms: C10_13  and  C11_14 
ROOT
HETATM    1  N1  BTN A 300       5.593  14.071 -10.775  1.00 17.73    -0.217 NA
HETATM    2  S1  BTN A 300       7.060  16.181 -12.873  1.00 16.59    -0.137 SA
HETATM    3  C2  BTN A 300       8.213  14.748 -12.920  1.00 17.74     0.072 C 
HETATM    4  N2  BTN A 300       7.762  13.850 -10.640  1.00 17.92    -0.217 NA
HETATM    5  C3  BTN A 300       6.634  14.087  -9.935  1.00 17.95     0.360 A 
HETATM    6  O3  BTN A 300       6.639  14.280  -8.700  1.00 17.93    -0.243 OA
HETATM    7  C4  BTN A 300       7.501  13.672 -12.067  1.00 17.65     0.141 A 
HETATM    8  C5  BTN A 300       5.986  13.824 -12.161  1.00 17.47     0.142 A 
HETATM    9  C6  BTN A 300       5.674  15.001 -13.079  1.00 17.06     0.084 C 
ENDROOT
BRANCH   3  10
HETATM   10  C7  BTN A 300       9.618  14.889 -12.493  1.00 18.33     0.013 C 
BRANCH  10  11
HETATM   11  C8  BTN A 300      10.389  16.206 -12.543  1.00 19.24     0.002 C 
BRANCH  11  12
HETATM   12  C9  BTN A 300      11.274  16.459 -11.390  1.00 20.09     0.011 C 
BRANCH  12  13
HETATM   13  C10 BTN A 300      12.597  17.205 -11.779  1.00 20.77     0.098 C 
BRANCH  13  14
HETATM   14  C11 BTN A 300      13.745  16.263 -11.853  1.00 21.57     0.185 C 
HETATM   15  O11 BTN A 300      13.810  15.171 -11.273  1.00 21.65    -0.647 OA
HETATM   16  O12 BTN A 300      14.892  16.852 -12.135  1.00 22.67    -0.647 OA
ENDBRANCH  13  14
ENDBRANCH  12  13
ENDBRANCH  11  12
ENDBRANCH  10  11
ENDBRANCH   3  10
TORSDOF 5
ENDMDL
MODEL 8
REMARK VINA RESULT:    -3.267      3.201      6.060
REMARK INTER + INTRA:          -4.724
REMARK INTER:                  -4.530
REMARK INTRA:                  -0.194
REMARK UNBOUND:                -0.502
REMARK  5 active torsions:
REMARK  status: ('A' for Active; 'I' for Inactive)
REMARK    1  A    between atoms: C2_3  and  C7_10 
REMARK    2  A    between atoms: C7_10  and  C8_11 
REMARK    3  A    between atoms: C8_11  and  C9_12 
REMARK    4  A    between atoms: C9_12  and  C10_13 
REMARK    5  A    between atoms: C10_13  and  C11_14 
ROOT
HETATM    1  N1  BTN A 300      22.824  12.418 -15.058  1.00 17.73    -0.217 NA
HETATM    2  S1  BTN A 300      20.878  13.240 -12.501  1.00 16.59    -0.137 SA
HETATM    3  C2  BTN A 300      22.555  13.437 -11.770  1.00 17.74     0.072 C 
HETATM    4  N2  BTN A 300      23.761  11.783 -13.190  1.00 17.92    -0.217 NA
HETATM    5  C3  BTN A 300      23.341  11.370 -14.407  1.00 17.95     0.360 A 
HETATM    6  O3  BTN A 300      23.452  10.186 -14.793  1.00 17.93    -0.243 OA
HETATM    7  C4  BTN A 300      23.508  13.205 -12.966  1.00 17.65     0.141 A 
HETATM    8  C5  BTN A 300      22.856  13.649 -14.271  1.00 17.47     0.142 A 
HETATM    9  C6  BTN A 300      21.463  14.183 -13.958  1.00 17.06     0.084 C 
ENDROOT
BRANCH   3  10
HETATM   10  C7  BTN A 300      22.980  12.625 -10.614  1.00 18.33     0.013 C 
BRANCH  10  11
HETATM   11  C8  BTN A 300      23.960  13.116  -9.551  1.00 19.24     0.002 C 
BRANCH  11  12
HETATM   12  C9  BTN A 300      23.461  13.057  -8.163  1.00 20.09     0.011 C 
BRANCH  12  13
HETATM   13  C10 BTN A 300      24.417  13.752  -7.133  1.00 20.77     0.098 C 
BRANCH  13  14
HETATM   14  C11 BTN A 300      24.813  12.815  -6.048  1.00 21.57     0.185 C 
HETATM   15  O11 BTN A 300      25.138  11.631  -6.212  1.00 21.65    -0.647 OA
HETATM   16  O12 BTN A 300      24.315  13.134  -4.869  1.00 22.67    -0.647 OA
ENDBRANCH  13  14
ENDBRANCH  12  13
ENDBRANCH  11  12
ENDBRANCH  10  11
ENDBRANCH   3  10
TORSDOF 5
ENDMDL
MODEL 9
REMARK VINA RESULT:    -3.193      6.872      7.740
REMARK INTER + INTRA:          -4.629
REMARK INTER:                  -4.458
REMARK INTRA:                  -0.171
REMARK UNBOUND:                -0.502
REMARK  5 active torsions:
REMARK  status: ('A' for Active; 'I' for Inactive)
REMARK    1  A    between atoms: C2_3  and  C7_10 
REMARK    2  A    between atoms: C7_10  and  C8_11 
REMARK    3  A    between atoms: C8_11  and  C9_12 
REMARK    4  A    between atoms: C9_12  and  C10_13 
REMARK    5  A    between atoms: C10_13  and  C11_14 
ROOT
HETATM    1  N1  BTN A 300      14.128  15.900  -8.677  1.00 17.73    -0.217 NA
HETATM    2  S1  BTN A 300      16.375  17.712 -10.311  1.00 16.59    -0.137 SA
HETATM    3  C2  BTN A 300      16.407  16.136 -11.260  1.00 17.74     0.072 C 
HETATM    4  N2  BTN A 300      15.714  14.599  -9.426  1.00 17.92    -0.217 NA
HETATM    5  C3  BTN A 300      15.035  14.983  -8.323  1.00 17.95     0.360 A 
HETATM    6  O3  BTN A 300      15.269  14.512  -7.189  1.00 17.93    -0.243 OA
HETATM    7  C4  BTN A 300      15.269  15.301 -10.628  1.00 17.65     0.141 A 
HETATM    8  C5  BTN A 300      14.159  16.208 -10.106  1.00 17.47     0.142 A 
HETATM    9  C6  BTN A 300      14.546  17.656 -10.387  1.00 17.06     0.084 C 
ENDROOT
BRANCH   3  10
HETATM   10  C7  BTN A 300      17.639  15.330 -11.354  1.00 18.33     0.013 C 
BRANCH  10  11
HETATM   11  C8  BTN A 300      18.407  15.107 -12.655  1.00 19.24     0.002 C 
BRANCH  11  12
HETATM   12  C9  BTN A 300      19.875  15.063 -12.517  1.00 20.09     0.011 C 
BRANCH  12  13
HETATM   13  C10 BTN A 300      20.486  13.660 -12.861  1.00 20.77     0.098 C 
BRANCH  13  14
HETATM   14  C11 BTN A 300      21.339  13.728 -14.077  1.00 21.57     0.185 C 
HETATM   15  O11 BTN A 300      21.559  12.783 -14.848  1.00 21.65    -0.647 OA
HETATM   16  O12 BTN A 300      22.258  14.673 -14.024  1.00 22.67    -0.647 OA
ENDBRANCH  13  14
ENDBRANCH  12  13
ENDBRANCH  11  12
ENDBRANCH  10  11
ENDBRANCH   3  10
TORSDOF 5
ENDMDL
