MODEL 1
REMARK VINA RESULT:    -4.242      0.000      0.000
REMARK INTER + INTRA:          -5.715
REMARK INTER:                  -5.482
REMARK INTRA:                  -0.233
REMARK UNBOUND:                -0.233
REMARK  5 active torsions:
REMARK  status: ('A' for Active; 'I' for Inactive)
REMARK    1  A    between atoms: C2_3  and  C7_10 
REMARK    2  A    between atoms: C7_10  and  C8_11 
REMARK    3  A    between atoms: C8_11  and  C9_12 
REMARK    4  A    between atoms: C9_12  and  C10_13 
REMARK    5  A    between atoms: C10_13  and  C11_14 
ROOT
HETATM    1  N1  BTN A 300      12.250   8.832  10.350  1.00 17.73    -0.217 NA
HETATM    2  S1  BTN A 300       9.805   9.597   8.244  1.00 16.59    -0.137 SA
HETATM    3  C2  BTN A 300      11.222   9.354   7.096  1.00 17.74     0.072 C 
HETATM    4  N2  BTN A 300      13.062   9.957   8.664  1.00 17.92    -0.217 NA
HETATM    5  C3  BTN A 300      12.963   9.911  10.011  1.00 17.95     0.360 A 
HETATM    6  O3  BTN A 300      13.482  10.771  10.755  1.00 17.93    -0.243 OA
HETATM    7  C4  BTN A 300      12.360   8.851   8.015  1.00 17.65     0.141 A 
HETATM    8  C5  BTN A 300      11.795   8.064   9.193  1.00 17.47     0.142 A 
HETATM    9  C6  BTN A 300      10.276   8.031   9.068  1.00 17.06     0.084 C 
ENDROOT
BRANCH   3  10
HETATM   10  C7  BTN A 300      11.706  10.455   6.241  1.00 18.33     0.013 C 
BRANCH  10  11
HETATM   11  C8  BTN A 300      11.799  10.366   4.720  1.00 19.24     0.002 C 
BRANCH  11  12
HETATM   12  C9  BTN A 300      11.590  11.639   4.003  1.00 20.09     0.011 C 
BRANCH  12  13
HETATM   13  C10 BTN A 300      10.433  11.570   2.947  1.00 20.77     0.098 C 
BRANCH  13  14
HETATM   14  C11 BTN A 300      10.882  10.901   1.697  1.00 21.57     0.185 C 
HETATM   15  O11 BTN A 300      10.470   9.808   1.285  1.00 21.65    -0.647 OA
HETATM   16  O12 BTN A 300      12.093  11.257   1.315  1.00 22.67    -0.647 OA
ENDBRANCH  13  14
ENDBRANCH  12  13
ENDBRANCH  11  12
ENDBRANCH  10  11
ENDBRANCH   3  10
TORSDOF 5
ENDMDL
MODEL 2
REMARK VINA RESULT:    -4.006      3.523      7.066
REMARK INTER + INTRA:          -5.410
REMARK INTER:                  -5.214
REMARK INTRA:                  -0.196
REMARK UNBOUND:                -0.233
REMARK  5 active torsions:
REMARK  status: ('A' for Active; 'I' for Inactive)
REMARK    1  A    between atoms: C2_3  and  C7_10 
REMARK    2  A    between atoms: C7_10  and  C8_11 
REMARK    3  A    between atoms: C8_11  and  C9_12 
REMARK    4  A    between atoms: C9_12  and  C10_13 
REMARK    5  A    between atoms: C10_13  and  C11_14 
ROOT
HETATM    1  N1  BTN A 300       9.354  11.148   1.399  1.00 17.73    -0.217 NA
HETATM    2  S1  BTN A 300      11.950  12.277   3.127  1.00 16.59    -0.137 SA
HETATM    3  C2  BTN A 300      11.665  10.638   3.914  1.00 17.74     0.072 C 
HETATM    4  N2  BTN A 300       9.222  10.445   3.463  1.00 17.92    -0.217 NA
HETATM    5  C3  BTN A 300       8.571  11.110   2.483  1.00 17.95     0.360 A 
HETATM    6  O3  BTN A 300       7.424  11.583   2.636  1.00 17.93    -0.243 OA
HETATM    7  C4  BTN A 300      10.552  10.002   3.048  1.00 17.65     0.141 A 
HETATM    8  C5  BTN A 300      10.643  10.490   1.606  1.00 17.47     0.142 A 
HETATM    9  C6  BTN A 300      11.819  11.455   1.496  1.00 17.06     0.084 C 
ENDROOT
BRANCH   3  10
HETATM   10  C7  BTN A 300      11.321  10.531   5.344  1.00 18.33     0.013 C 
BRANCH  10  11
HETATM   11  C8  BTN A 300      11.222   9.203   6.092  1.00 19.24     0.002 C 
BRANCH  11  12
HETATM   12  C9  BTN A 300      12.046   9.108   7.312  1.00 20.09     0.011 C 
BRANCH  12  13
HETATM   13  C10 BTN A 300      12.081  10.440   8.140  1.00 20.77     0.098 C 
BRANCH  13  14
HETATM   14  C11 BTN A 300      13.150  10.404   9.174  1.00 21.57     0.185 C 
HETATM   15  O11 BTN A 300      13.146   9.679  10.178  1.00 21.65    -0.647 OA
HETATM   16  O12 BTN A 300      13.840  11.525   9.257  1.00 22.67    -0.647 OA
ENDBRANCH  13  14
ENDBRANCH  12  13
ENDBRANCH  11  12
ENDBRANCH  10  11
ENDBRANCH   3  10
TORSDOF 5
ENDMDL
MODEL 3
REMARK VINA RESULT:    -3.977     16.594     17.782
REMARK INTER + INTRA:          -5.373
REMARK INTER:                  -4.673
REMARK INTRA:                  -0.700
REMARK UNBOUND:                -0.233
REMARK  5 active torsions:
REMARK  status: ('A' for Active; 'I' for Inactive)
REMARK    1  A    between atoms: C2_3  and  C7_10 
REMARK    2  A    between atoms: C7_10  and  C8_11 
REMARK    3  A    between atoms: C8_11  and  C9_12 
REMARK    4  A    between atoms: C9_12  and  C10_13 
REMARK    5  A    between atoms: C10_13  and  C11_14 
ROOT
HETATM    1  N1  BTN A 300      21.812  -1.354  18.468  1.00 17.73    -0.217 NA
HETATM    2  S1  BTN A 300      22.603   1.588  17.156  1.00 16.59    -0.137 SA
HETATM    3  C2  BTN A 300      21.003   1.228  16.323  1.00 17.74     0.072 C 
HETATM    4  N2  BTN A 300      21.110  -1.260  16.403  1.00 17.92    -0.217 NA
HETATM    5  C3  BTN A 300      21.858  -1.966  17.279  1.00 17.95     0.360 A 
HETATM    6  O3  BTN A 300      22.465  -3.011  16.960  1.00 17.93    -0.243 OA
HETATM    7  C4  BTN A 300      20.514  -0.071  17.008  1.00 17.65     0.141 A 
HETATM    8  C5  BTN A 300      21.003  -0.138  18.451  1.00 17.47     0.142 A 
HETATM    9  C6  BTN A 300      21.819   1.116  18.743  1.00 17.06     0.084 C 
ENDROOT
BRANCH   3  10
HETATM   10  C7  BTN A 300      20.923   1.091  14.857  1.00 18.33     0.013 C 
BRANCH  10  11
HETATM   11  C8  BTN A 300      21.852   1.820  13.888  1.00 19.24     0.002 C 
BRANCH  11  12
HETATM   12  C9  BTN A 300      22.990   1.024  13.391  1.00 20.09     0.011 C 
BRANCH  12  13
HETATM   13  C10 BTN A 300      22.674  -0.509  13.292  1.00 20.77     0.098 C 
BRANCH  13  14
HETATM   14  C11 BTN A 300      23.738  -1.321  13.942  1.00 21.57     0.185 C 
HETATM   15  O11 BTN A 300      23.768  -2.559  13.976  1.00 21.65    -0.647 OA
HETATM   16  O12 BTN A 300      24.365  -0.687  14.913  1.00 22.67    -0.647 OA
ENDBRANCH  13  14
ENDBRANCH  12  13
ENDBRANCH  11  12
ENDBRANCH  10  11
ENDBRANCH   3  10
TORSDOF 5
ENDMDL
MODEL 4
REMARK VINA RESULT:    -3.880      4.410      6.158
REMARK INTER + INTRA:          -5.247
REMARK INTER:                  -4.590
REMARK INTRA:                  -0.657
REMARK UNBOUND:                -0.233
REMARK  5 active torsions:
REMARK  status: ('A' for Active; 'I' for Inactive)
REMARK    1  A    between atoms: C2_3  and  C7_10 
REMARK    2  A    between atoms: C7_10  and  C8_11 
REMARK    3  A    between atoms: C8_11  and  C9_12 
REMARK    4  A    between atoms: C9_12  and  C10_13 
REMARK    5  A    between atoms: C10_13  and  C11_14 
ROOT
HETATM    1  N1  BTN A 300       7.508   7.666   3.398  1.00 17.73    -0.217 NA
HETATM    2  S1  BTN A 300       7.726  10.589   1.845  1.00 16.59    -0.137 SA
HETATM    3  C2  BTN A 300       9.215   9.717   1.206  1.00 17.74     0.072 C 
HETATM    4  N2  BTN A 300       9.609   8.209   3.150  1.00 17.92    -0.217 NA
HETATM    5  C3  BTN A 300       8.661   7.856   4.048  1.00 17.95     0.360 A 
HETATM    6  O3  BTN A 300       8.899   7.743   5.270  1.00 17.93    -0.243 OA
HETATM    7  C4  BTN A 300       9.085   8.289   1.788  1.00 17.65     0.141 A 
HETATM    8  C5  BTN A 300       7.618   7.908   1.961  1.00 17.47     0.142 A 
HETATM    9  C6  BTN A 300       6.757   9.076   1.493  1.00 17.06     0.084 C 
ENDROOT
BRANCH   3  10
HETATM   10  C7  BTN A 300      10.570  10.246   1.452  1.00 18.33     0.013 C 
BRANCH  10  11
HETATM   11  C8  BTN A 300      10.876  11.730   1.641  1.00 19.24     0.002 C 
BRANCH  11  12
HETATM   12  C9  BTN A 300      11.263  12.121   3.010  1.00 20.09     0.011 C 
BRANCH  12  13
HETATM   13  C10 BTN A 300      12.009  10.984   3.790  1.00 20.77     0.098 C 
BRANCH  13  14
HETATM   14  C11 BTN A 300      11.356  10.710   5.098  1.00 21.57     0.185 C 
HETATM   15  O11 BTN A 300      11.751   9.884   5.932  1.00 21.65    -0.647 OA
HETATM   16  O12 BTN A 300      10.070  11.000   5.116  1.00 22.67    -0.647 OA
ENDBRANCH  13  14
ENDBRANCH  12  13
ENDBRANCH  11  12
ENDBRANCH  10  11
ENDBRANCH   3  10
TORSDOF 5
ENDMDL
MODEL 5
REMARK VINA RESULT:    -3.841      2.421      2.739
REMARK INTER + INTRA:          -5.197
REMARK INTER:                  -4.908
REMARK INTRA:                  -0.289
REMARK UNBOUND:                -0.233
REMARK  5 active torsions:
REMARK  status: ('A' for Active; 'I' for Inactive)
REMARK    1  A    between atoms: C2_3  and  C7_10 
REMARK    2  A    between atoms: C7_10  and  C8_11 
REMARK    3  A    between atoms: C8_11  and  C9_12 
REMARK    4  A    between atoms: C9_12  and  C10_13 
REMARK    5  A    between atoms: C10_13  and  C11_14 
ROOT
HETATM    1  N1  BTN A 300      10.231   7.359   9.245  1.00 17.73    -0.217 NA
HETATM    2  S1  BTN A 300      12.725   9.408   8.479  1.00 16.59    -0.137 SA
HETATM    3  C2  BTN A 300      11.430   9.936   7.283  1.00 17.74     0.072 C 
HETATM    4  N2  BTN A 300      10.208   7.772   7.100  1.00 17.92    -0.217 NA
HETATM    5  C3  BTN A 300      10.242   6.794   8.032  1.00 17.95     0.360 A 
HETATM    6  O3  BTN A 300      10.274   5.580   7.735  1.00 17.93    -0.243 OA
HETATM    7  C4  BTN A 300      10.189   9.108   7.693  1.00 17.65     0.141 A 
HETATM    8  C5  BTN A 300      10.203   8.819   9.191  1.00 17.47     0.142 A 
HETATM    9  C6  BTN A 300      11.452   9.454   9.794  1.00 17.06     0.084 C 
ENDROOT
BRANCH   3  10
HETATM   10  C7  BTN A 300      11.652   9.834   5.829  1.00 18.33     0.013 C 
BRANCH  10  11
HETATM   11  C8  BTN A 300      10.866  10.639   4.796  1.00 19.24     0.002 C 
BRANCH  11  12
HETATM   12  C9  BTN A 300      11.646  11.660   4.070  1.00 20.09     0.011 C 
BRANCH  12  13
HETATM   13  C10 BTN A 300      11.967  11.255   2.589  1.00 20.77     0.098 C 
BRANCH  13  14
HETATM   14  C11 BTN A 300      10.724  10.940   1.836  1.00 21.57     0.185 C 
HETATM   15  O11 BTN A 300      10.514   9.890   1.213  1.00 21.65    -0.647 OA
HETATM   16  O12 BTN A 300      10.070  12.011   1.427  1.00 22.67    -0.647 OA
ENDBRANCH  13  14
ENDBRANCH  12  13
ENDBRANCH  11  12
ENDBRANCH  10  11
ENDBRANCH   3  10
TORSDOF 5
ENDMDL
MODEL 6
REMARK VINA RESULT:    -3.799     16.173     16.892
REMARK INTER + INTRA:          -5.142
REMARK INTER:                  -4.749
REMARK INTRA:                  -0.393
REMARK UNBOUND:                -0.233
REMARK  5 active torsions:
REMARK  status: ('A' for Active; 'I' for Inactive)
REMARK    1  A    between atoms: C2_3  and  C7_10 
REMARK    2  A    between atoms: C7_10  and  C8_11 
REMARK    3  A    between atoms: C8_11  and  C9_12 
REMARK    4  A    between atoms: C9_12  and  C10_13 
REMARK    5  A    between atoms: C10_13  and  C11_14 
ROOT
HETATM    1  N1  BTN A 300      20.546  -1.779  16.186  1.00 17.73    -0.217 NA
HETATM    2  S1  BTN A 300      20.042  -0.392  13.215  1.00 16.59    -0.137 SA
HETATM    3  C2  BTN A 300      21.855  -0.165  13.428  1.00 17.74     0.072 C 
HETATM    4  N2  BTN A 300      21.917  -0.101  15.919  1.00 17.92    -0.217 NA
HETATM    5  C3  BTN A 300      20.965  -0.627  16.721  1.00 17.95     0.360 A 
HETATM    6  O3  BTN A 300      20.591  -0.072  17.776  1.00 17.93    -0.243 OA
HETATM    7  C4  BTN A 300      22.171  -0.925  14.738  1.00 17.65     0.141 A 
HETATM    8  C5  BTN A 300      21.215  -2.098  14.926  1.00 17.47     0.142 A 
HETATM    9  C6  BTN A 300      20.255  -2.133  13.743  1.00 17.06     0.084 C 
ENDROOT
BRANCH   3  10
HETATM   10  C7  BTN A 300      22.453   1.183  13.465  1.00 18.33     0.013 C 
BRANCH  10  11
HETATM   11  C8  BTN A 300      23.958   1.440  13.492  1.00 19.24     0.002 C 
BRANCH  11  12
HETATM   12  C9  BTN A 300      24.365   2.722  14.098  1.00 20.09     0.011 C 
BRANCH  12  13
HETATM   13  C10 BTN A 300      23.157   3.555  14.650  1.00 20.77     0.098 C 
BRANCH  13  14
HETATM   14  C11 BTN A 300      23.260   3.746  16.121  1.00 21.57     0.185 C 
HETATM   15  O11 BTN A 300      22.916   2.916  16.974  1.00 21.65    -0.647 OA
HETATM   16  O12 BTN A 300      23.247   5.012  16.490  1.00 22.67    -0.647 OA
ENDBRANCH  13  14
ENDBRANCH  12  13
ENDBRANCH  11  12
ENDBRANCH  10  11
ENDBRANCH   3  10
TORSDOF 5
ENDMDL
MODEL 7
REMARK VINA RESULT:    -3.764     16.571     17.289
REMARK INTER + INTRA:          -5.097
REMARK INTER:                  -4.882
REMARK INTRA:                  -0.216
REMARK UNBOUND:                -0.233
REMARK  5 active torsions:
REMARK  status: ('A' for Active; 'I' for Inactive)
REMARK    1  A    between atoms: C2_3  and  C7_10 
REMARK    2  A    between atoms: C7_10  and  C8_11 
REMARK    3  A    between atoms: C8_11  and  C9_12 
REMARK    4  A    between atoms: C9_12  and  C10_13 
REMARK    5  A    between atoms: C10_13  and  C11_14 
ROOT
HETATM    1  N1  BTN A 300      20.403  -0.220  16.780  1.00 17.73    -0.217 NA
HETATM    2  S1  BTN A 300      22.926   1.864  16.238  1.00 16.59    -0.137 SA
HETATM    3  C2  BTN A 300      22.154   1.773  14.571  1.00 17.74     0.072 C 
HETATM    4  N2  BTN A 300      21.169  -0.508  14.755  1.00 17.92    -0.217 NA
HETATM    5  C3  BTN A 300      20.887  -1.126  15.924  1.00 17.95     0.360 A 
HETATM    6  O3  BTN A 300      21.072  -2.350  16.101  1.00 17.93    -0.243 OA
HETATM    7  C4  BTN A 300      20.881   0.924  14.798  1.00 17.65     0.141 A 
HETATM    8  C5  BTN A 300      20.344   1.125  16.212  1.00 17.47     0.142 A 
HETATM    9  C6  BTN A 300      21.252   2.111  16.938  1.00 17.06     0.084 C 
ENDROOT
BRANCH   3  10
HETATM   10  C7  BTN A 300      22.908   1.259  13.411  1.00 18.33     0.013 C 
BRANCH  10  11
HETATM   11  C8  BTN A 300      24.419   1.037  13.416  1.00 19.24     0.002 C 
BRANCH  11  12
HETATM   12  C9  BTN A 300      25.066   1.093  12.091  1.00 20.09     0.011 C 
BRANCH  12  13
HETATM   13  C10 BTN A 300      26.420   1.884  12.099  1.00 20.77     0.098 C 
BRANCH  13  14
HETATM   14  C11 BTN A 300      27.548   1.025  11.650  1.00 21.57     0.185 C 
HETATM   15  O11 BTN A 300      28.628   1.440  11.207  1.00 21.65    -0.647 OA
HETATM   16  O12 BTN A 300      27.172  -0.177  11.260  1.00 22.67    -0.647 OA
ENDBRANCH  13  14
ENDBRANCH  12  13
ENDBRANCH  11  12
ENDBRANCH  10  11
ENDBRANCH   3  10
TORSDOF 5
ENDMDL
MODEL 8
REMARK VINA RESULT:    -3.736     16.504     17.232
REMARK INTER + INTRA:          -5.061
REMARK INTER:                  -4.657
REMARK INTRA:                  -0.403
REMARK UNBOUND:                -0.233
REMARK  5 active torsions:
REMARK  status: ('A' for Active; 'I' for Inactive)
REMARK    1  A    between atoms: C2_3  and  C7_10 
REMARK    2  A    between atoms: C7_10  and  C8_11 
REMARK    3  A    between atoms: C8_11  and  C9_12 
REMARK    4  A    between atoms: C9_12  and  C10_13 
REMARK    5  A    between atoms: C10_13  and  C11_14 
ROOT
HETATM    1  N1  BTN A 300      21.988   2.398  19.075  1.00 17.73    -0.217 NA
HETATM    2  S1  BTN A 300      23.964   3.024  16.485  1.00 16.59    -0.137 SA
HETATM    3  C2  BTN A 300      22.457   2.375  15.654  1.00 17.74     0.072 C 
HETATM    4  N2  BTN A 300      21.623   0.928  17.502  1.00 17.92    -0.217 NA
HETATM    5  C3  BTN A 300      21.946   1.089  18.805  1.00 17.95     0.360 A 
HETATM    6  O3  BTN A 300      22.155   0.125  19.572  1.00 17.93    -0.243 OA
HETATM    7  C4  BTN A 300      21.443   2.202  16.809  1.00 17.65     0.141 A 
HETATM    8  C5  BTN A 300      21.696   3.229  17.908  1.00 17.47     0.142 A 
HETATM    9  C6  BTN A 300      22.878   4.099  17.494  1.00 17.06     0.084 C 
ENDROOT
BRANCH   3  10
HETATM   10  C7  BTN A 300      22.508   1.150  14.834  1.00 18.33     0.013 C 
BRANCH  10  11
HETATM   11  C8  BTN A 300      21.860   1.027  13.456  1.00 19.24     0.002 C 
BRANCH  11  12
HETATM   12  C9  BTN A 300      21.103  -0.218  13.228  1.00 20.09     0.011 C 
BRANCH  12  13
HETATM   13  C10 BTN A 300      20.505  -0.828  14.543  1.00 20.77     0.098 C 
BRANCH  13  14
HETATM   14  C11 BTN A 300      20.891  -2.255  14.700  1.00 21.57     0.185 C 
HETATM   15  O11 BTN A 300      21.888  -2.785  14.190  1.00 21.65    -0.647 OA
HETATM   16  O12 BTN A 300      19.873  -3.049  14.969  1.00 22.67    -0.647 OA
ENDBRANCH  13  14
ENDBRANCH  12  13
ENDBRANCH  11  12
ENDBRANCH  10  11
ENDBRANCH   3  10
TORSDOF 5
ENDMDL
MODEL 9
REMARK VINA RESULT:    -3.698     16.153     17.313
REMARK INTER + INTRA:          -5.012
REMARK INTER:                  -4.635
REMARK INTRA:                  -0.377
REMARK UNBOUND:                -0.233
REMARK  5 active torsions:
REMARK  status: ('A' for Active; 'I' for Inactive)
REMARK    1  A    between atoms: C2_3  and  C7_10 
REMARK    2  A    between atoms: C7_10  and  C8_11 
REMARK    3  A    between atoms: C8_11  and  C9_12 
REMARK    4  A    between atoms: C9_12  and  C10_13 
REMARK    5  A    between atoms: C10_13  and  C11_14 
ROOT
HETATM    1  N1  BTN A 300      23.172   0.139  18.749  1.00 17.73    -0.217 NA
HETATM    2  S1  BTN A 300      22.843   2.604  16.553  1.00 16.59    -0.137 SA
HETATM    3  C2  BTN A 300      21.185   1.812  16.474  1.00 17.74     0.072 C 
HETATM    4  N2  BTN A 300      21.859  -0.497  17.124  1.00 17.92    -0.217 NA
HETATM    5  C3  BTN A 300      22.980  -0.800  17.816  1.00 17.95     0.360 A 
HETATM    6  O3  BTN A 300      23.672  -1.810  17.570  1.00 17.93    -0.243 OA
HETATM    7  C4  BTN A 300      21.233   0.740  17.588  1.00 17.65     0.141 A 
HETATM    8  C5  BTN A 300      22.149   1.183  18.725  1.00 17.47     0.142 A 
HETATM    9  C6  BTN A 300      22.717   2.555  18.380  1.00 17.06     0.084 C 
ENDROOT
BRANCH   3  10
HETATM   10  C7  BTN A 300      20.685   1.219  15.219  1.00 18.33     0.013 C 
BRANCH  10  11
HETATM   11  C8  BTN A 300      21.512   1.130  13.938  1.00 19.24     0.002 C 
BRANCH  11  12
HETATM   12  C9  BTN A 300      21.459  -0.173  13.247  1.00 20.09     0.011 C 
BRANCH  12  13
HETATM   13  C10 BTN A 300      20.007  -0.754  13.134  1.00 20.77     0.098 C 
BRANCH  13  14
HETATM   14  C11 BTN A 300      19.898  -2.070  13.818  1.00 21.57     0.185 C 
HETATM   15  O11 BTN A 300      20.801  -2.611  14.470  1.00 21.65    -0.647 OA
HETATM   16  O12 BTN A 300      18.995  -2.868  13.283  1.00 22.67    -0.647 OA
ENDBRANCH  13  14
ENDBRANCH  12  13
ENDBRANCH  11  12
ENDBRANCH  10  11
ENDBRANCH   3  10
TORSDOF 5
ENDMDL
