MODEL 1
REMARK VINA RESULT:    -3.861      0.000      0.000
REMARK INTER + INTRA:          -5.346
REMARK INTER:                  -4.990
REMARK INTRA:                  -0.356
REMARK UNBOUND:                -0.356
REMARK  5 active torsions:
REMARK  status: ('A' for Active; 'I' for Inactive)
REMARK    1  A    between atoms: C2_3  and  C7_10 
REMARK    2  A    between atoms: C7_10  and  C8_11 
REMARK    3  A    between atoms: C8_11  and  C9_12 
REMARK    4  A    between atoms: C9_12  and  C10_13 
REMARK    5  A    between atoms: C10_13  and  C11_14 
ROOT
HETATM    1  N1  BTN A 300      21.654  -2.350  15.544  1.00 17.73    -0.217 NA
HETATM    2  S1  BTN A 300      22.037   0.755  16.646  1.00 16.59    -0.137 SA
HETATM    3  C2  BTN A 300      21.227   1.036  15.018  1.00 17.74     0.072 C 
HETATM    4  N2  BTN A 300      22.035  -1.016  13.858  1.00 17.92    -0.217 NA
HETATM    5  C3  BTN A 300      22.446  -2.139  14.488  1.00 17.95     0.360 A 
HETATM    6  O3  BTN A 300      23.417  -2.818  14.089  1.00 17.93    -0.243 OA
HETATM    7  C4  BTN A 300      20.892  -0.391  14.521  1.00 17.65     0.141 A 
HETATM    8  C5  BTN A 300      20.625  -1.324  15.698  1.00 17.47     0.142 A 
HETATM    9  C6  BTN A 300      20.776  -0.528  16.990  1.00 17.06     0.084 C 
ENDROOT
BRANCH   3  10
HETATM   10  C7  BTN A 300      21.905   1.800  13.954  1.00 18.33     0.013 C 
BRANCH  10  11
HETATM   11  C8  BTN A 300      23.049   2.777  14.213  1.00 19.24     0.002 C 
BRANCH  11  12
HETATM   12  C9  BTN A 300      24.398   2.256  13.919  1.00 20.09     0.011 C 
BRANCH  12  13
HETATM   13  C10 BTN A 300      24.415   1.210  12.751  1.00 20.77     0.098 C 
BRANCH  13  14
HETATM   14  C11 BTN A 300      25.640   1.350  11.919  1.00 21.57     0.185 C 
HETATM   15  O11 BTN A 300      26.400   0.423  11.608  1.00 21.65    -0.647 OA
HETATM   16  O12 BTN A 300      26.166   2.559  11.956  1.00 22.67    -0.647 OA
ENDBRANCH  13  14
ENDBRANCH  12  13
ENDBRANCH  11  12
ENDBRANCH  10  11
ENDBRANCH   3  10
TORSDOF 5
ENDMDL
MODEL 2
REMARK VINA RESULT:    -3.819      1.842      2.111
REMARK INTER + INTRA:          -5.292
REMARK INTER:                  -4.807
REMARK INTRA:                  -0.485
REMARK UNBOUND:                -0.356
REMARK  5 active torsions:
REMARK  status: ('A' for Active; 'I' for Inactive)
REMARK    1  A    between atoms: C2_3  and  C7_10 
REMARK    2  A    between atoms: C7_10  and  C8_11 
REMARK    3  A    between atoms: C8_11  and  C9_12 
REMARK    4  A    between atoms: C9_12  and  C10_13 
REMARK    5  A    between atoms: C10_13  and  C11_14 
ROOT
HETATM    1  N1  BTN A 300      20.609  -1.402  14.870  1.00 17.73    -0.217 NA
HETATM    2  S1  BTN A 300      23.231  -0.193  16.502  1.00 16.59    -0.137 SA
HETATM    3  C2  BTN A 300      21.954   1.084  16.854  1.00 17.74     0.072 C 
HETATM    4  N2  BTN A 300      20.570   0.781  14.804  1.00 17.92    -0.217 NA
HETATM    5  C3  BTN A 300      20.551  -0.343  14.054  1.00 17.95     0.360 A 
HETATM    6  O3  BTN A 300      20.487  -0.321  12.806  1.00 17.93    -0.243 OA
HETATM    7  C4  BTN A 300      20.664   0.496  16.235  1.00 17.65     0.141 A 
HETATM    8  C5  BTN A 300      20.688  -1.028  16.281  1.00 17.47     0.142 A 
HETATM    9  C6  BTN A 300      21.993  -1.471  16.934  1.00 17.06     0.084 C 
ENDROOT
BRANCH   3  10
HETATM   10  C7  BTN A 300      22.136   2.481  16.420  1.00 18.33     0.013 C 
BRANCH  10  11
HETATM   11  C8  BTN A 300      23.425   3.011  15.794  1.00 19.24     0.002 C 
BRANCH  11  12
HETATM   12  C9  BTN A 300      23.469   2.974  14.320  1.00 20.09     0.011 C 
BRANCH  12  13
HETATM   13  C10 BTN A 300      24.798   2.361  13.757  1.00 20.77     0.098 C 
BRANCH  13  14
HETATM   14  C11 BTN A 300      24.519   1.253  12.804  1.00 21.57     0.185 C 
HETATM   15  O11 BTN A 300      23.916   0.208  13.083  1.00 21.65    -0.647 OA
HETATM   16  O12 BTN A 300      25.375   1.193  11.802  1.00 22.67    -0.647 OA
ENDBRANCH  13  14
ENDBRANCH  12  13
ENDBRANCH  11  12
ENDBRANCH  10  11
ENDBRANCH   3  10
TORSDOF 5
ENDMDL
MODEL 3
REMARK VINA RESULT:    -3.692     20.327     21.276
REMARK INTER + INTRA:          -5.127
REMARK INTER:                  -4.943
REMARK INTRA:                  -0.184
REMARK UNBOUND:                -0.356
REMARK  5 active torsions:
REMARK  status: ('A' for Active; 'I' for Inactive)
REMARK    1  A    between atoms: C2_3  and  C7_10 
REMARK    2  A    between atoms: C7_10  and  C8_11 
REMARK    3  A    between atoms: C8_11  and  C9_12 
REMARK    4  A    between atoms: C9_12  and  C10_13 
REMARK    5  A    between atoms: C10_13  and  C11_14 
ROOT
HETATM    1  N1  BTN A 300      20.859 -10.925  -1.549  1.00 17.73    -0.217 NA
HETATM    2  S1  BTN A 300      19.445  -8.256  -2.919  1.00 16.59    -0.137 SA
HETATM    3  C2  BTN A 300      20.268  -9.027  -4.373  1.00 17.74     0.072 C 
HETATM    4  N2  BTN A 300      22.121 -10.177  -3.167  1.00 17.92    -0.217 NA
HETATM    5  C3  BTN A 300      22.092 -10.506  -1.856  1.00 17.95     0.360 A 
HETATM    6  O3  BTN A 300      23.093 -10.411  -1.114  1.00 17.93    -0.243 OA
HETATM    7  C4  BTN A 300      20.825 -10.360  -3.818  1.00 17.65     0.141 A 
HETATM    8  C5  BTN A 300      19.944 -10.885  -2.689  1.00 17.47     0.142 A 
HETATM    9  C6  BTN A 300      18.791  -9.909  -2.482  1.00 17.06     0.084 C 
ENDROOT
BRANCH   3  10
HETATM   10  C7  BTN A 300      21.317  -8.310  -5.122  1.00 18.33     0.013 C 
BRANCH  10  11
HETATM   11  C8  BTN A 300      21.618  -8.555  -6.599  1.00 19.24     0.002 C 
BRANCH  11  12
HETATM   12  C9  BTN A 300      22.040  -7.363  -7.359  1.00 20.09     0.011 C 
BRANCH  12  13
HETATM   13  C10 BTN A 300      23.570  -7.358  -7.701  1.00 20.77     0.098 C 
BRANCH  13  14
HETATM   14  C11 BTN A 300      23.872  -6.414  -8.810  1.00 21.57     0.185 C 
HETATM   15  O11 BTN A 300      23.242  -6.338  -9.873  1.00 21.65    -0.647 OA
HETATM   16  O12 BTN A 300      25.131  -6.022  -8.840  1.00 22.67    -0.647 OA
ENDBRANCH  13  14
ENDBRANCH  12  13
ENDBRANCH  11  12
ENDBRANCH  10  11
ENDBRANCH   3  10
TORSDOF 5
ENDMDL
MODEL 4
REMARK VINA RESULT:    -3.663     21.780     22.945
REMARK INTER + INTRA:          -5.089
REMARK INTER:                  -4.854
REMARK INTRA:                  -0.235
REMARK UNBOUND:                -0.356
REMARK  5 active torsions:
REMARK  status: ('A' for Active; 'I' for Inactive)
REMARK    1  A    between atoms: C2_3  and  C7_10 
REMARK    2  A    between atoms: C7_10  and  C8_11 
REMARK    3  A    between atoms: C8_11  and  C9_12 
REMARK    4  A    between atoms: C9_12  and  C10_13 
REMARK    5  A    between atoms: C10_13  and  C11_14 
ROOT
HETATM    1  N1  BTN A 300      20.113 -10.343  -5.342  1.00 17.73    -0.217 NA
HETATM    2  S1  BTN A 300      20.007  -9.069  -8.403  1.00 16.59    -0.137 SA
HETATM    3  C2  BTN A 300      21.694  -8.580  -7.856  1.00 17.74     0.072 C 
HETATM    4  N2  BTN A 300      21.262  -8.486  -5.403  1.00 17.92    -0.217 NA
HETATM    5  C3  BTN A 300      20.256  -9.138  -4.779  1.00 17.95     0.360 A 
HETATM    6  O3  BTN A 300      19.609  -8.634  -3.835  1.00 17.93    -0.243 OA
HETATM    7  C4  BTN A 300      21.853  -9.275  -6.483  1.00 17.65     0.141 A 
HETATM    8  C5  BTN A 300      21.053 -10.573  -6.438  1.00 17.47     0.142 A 
HETATM    9  C6  BTN A 300      20.355 -10.757  -7.781  1.00 17.06     0.084 C 
ENDROOT
BRANCH   3  10
HETATM   10  C7  BTN A 300      22.078  -7.160  -7.755  1.00 18.33     0.013 C 
BRANCH  10  11
HETATM   11  C8  BTN A 300      23.313  -6.568  -8.431  1.00 19.24     0.002 C 
BRANCH  11  12
HETATM   12  C9  BTN A 300      24.606  -7.057  -7.914  1.00 20.09     0.011 C 
BRANCH  12  13
HETATM   13  C10 BTN A 300      25.826  -6.194  -8.386  1.00 20.77     0.098 C 
BRANCH  13  14
HETATM   14  C11 BTN A 300      27.023  -6.442  -7.539  1.00 21.57     0.185 C 
HETATM   15  O11 BTN A 300      28.028  -5.720  -7.495  1.00 21.65    -0.647 OA
HETATM   16  O12 BTN A 300      27.194  -7.713  -7.230  1.00 22.67    -0.647 OA
ENDBRANCH  13  14
ENDBRANCH  12  13
ENDBRANCH  11  12
ENDBRANCH  10  11
ENDBRANCH   3  10
TORSDOF 5
ENDMDL
MODEL 5
REMARK VINA RESULT:    -3.659      1.717      2.172
REMARK INTER + INTRA:          -5.084
REMARK INTER:                  -4.805
REMARK INTRA:                  -0.279
REMARK UNBOUND:                -0.356
REMARK  5 active torsions:
REMARK  status: ('A' for Active; 'I' for Inactive)
REMARK    1  A    between atoms: C2_3  and  C7_10 
REMARK    2  A    between atoms: C7_10  and  C8_11 
REMARK    3  A    between atoms: C8_11  and  C9_12 
REMARK    4  A    between atoms: C9_12  and  C10_13 
REMARK    5  A    between atoms: C10_13  and  C11_14 
ROOT
HETATM    1  N1  BTN A 300      20.352  -0.376  16.730  1.00 17.73    -0.217 NA
HETATM    2  S1  BTN A 300      23.019   1.480  16.059  1.00 16.59    -0.137 SA
HETATM    3  C2  BTN A 300      22.085   1.586  14.478  1.00 17.74     0.072 C 
HETATM    4  N2  BTN A 300      20.885  -0.593  14.623  1.00 17.92    -0.217 NA
HETATM    5  C3  BTN A 300      20.653  -1.262  15.774  1.00 17.95     0.360 A 
HETATM    6  O3  BTN A 300      20.723  -2.507  15.857  1.00 17.93    -0.243 OA
HETATM    7  C4  BTN A 300      20.756   0.854  14.783  1.00 17.65     0.141 A 
HETATM    8  C5  BTN A 300      20.382   1.006  16.254  1.00 17.47     0.142 A 
HETATM    9  C6  BTN A 300      21.455   1.842  16.942  1.00 17.06     0.084 C 
ENDROOT
BRANCH   3  10
HETATM   10  C7  BTN A 300      22.664   1.084  13.218  1.00 18.33     0.013 C 
BRANCH  10  11
HETATM   11  C8  BTN A 300      24.021   0.388  13.129  1.00 19.24     0.002 C 
BRANCH  11  12
HETATM   12  C9  BTN A 300      25.063   1.136  12.400  1.00 20.09     0.011 C 
BRANCH  12  13
HETATM   13  C10 BTN A 300      25.440   2.496  13.083  1.00 20.77     0.098 C 
BRANCH  13  14
HETATM   14  C11 BTN A 300      26.825   2.910  12.734  1.00 21.57     0.185 C 
HETATM   15  O11 BTN A 300      27.834   2.665  13.410  1.00 21.65    -0.647 OA
HETATM   16  O12 BTN A 300      26.877   3.976  11.959  1.00 22.67    -0.647 OA
ENDBRANCH  13  14
ENDBRANCH  12  13
ENDBRANCH  11  12
ENDBRANCH  10  11
ENDBRANCH   3  10
TORSDOF 5
ENDMDL
MODEL 6
REMARK VINA RESULT:    -3.635      1.999      2.784
REMARK INTER + INTRA:          -5.053
REMARK INTER:                  -4.621
REMARK INTRA:                  -0.432
REMARK UNBOUND:                -0.356
REMARK  5 active torsions:
REMARK  status: ('A' for Active; 'I' for Inactive)
REMARK    1  A    between atoms: C2_3  and  C7_10 
REMARK    2  A    between atoms: C7_10  and  C8_11 
REMARK    3  A    between atoms: C8_11  and  C9_12 
REMARK    4  A    between atoms: C9_12  and  C10_13 
REMARK    5  A    between atoms: C10_13  and  C11_14 
ROOT
HETATM    1  N1  BTN A 300      20.398  -0.228  16.758  1.00 17.73    -0.217 NA
HETATM    2  S1  BTN A 300      22.972   1.820  16.328  1.00 16.59    -0.137 SA
HETATM    3  C2  BTN A 300      22.227   1.802  14.646  1.00 17.74     0.072 C 
HETATM    4  N2  BTN A 300      21.193  -0.463  14.737  1.00 17.92    -0.217 NA
HETATM    5  C3  BTN A 300      20.879  -1.115  15.879  1.00 17.95     0.360 A 
HETATM    6  O3  BTN A 300      21.037  -2.347  16.017  1.00 17.93    -0.243 OA
HETATM    7  C4  BTN A 300      20.933   0.973  14.824  1.00 17.65     0.141 A 
HETATM    8  C5  BTN A 300      20.376   1.136  16.234  1.00 17.47     0.142 A 
HETATM    9  C6  BTN A 300      21.291   2.078  17.009  1.00 17.06     0.084 C 
ENDROOT
BRANCH   3  10
HETATM   10  C7  BTN A 300      22.989   1.313  13.482  1.00 18.33     0.013 C 
BRANCH  10  11
HETATM   11  C8  BTN A 300      24.498   1.490  13.325  1.00 19.24     0.002 C 
BRANCH  11  12
HETATM   12  C9  BTN A 300      25.199   0.360  12.685  1.00 20.09     0.011 C 
BRANCH  12  13
HETATM   13  C10 BTN A 300      24.329  -0.941  12.607  1.00 20.77     0.098 C 
BRANCH  13  14
HETATM   14  C11 BTN A 300      24.863  -2.002  13.502  1.00 21.57     0.185 C 
HETATM   15  O11 BTN A 300      25.955  -2.570  13.362  1.00 21.65    -0.647 OA
HETATM   16  O12 BTN A 300      23.925  -2.674  14.140  1.00 22.67    -0.647 OA
ENDBRANCH  13  14
ENDBRANCH  12  13
ENDBRANCH  11  12
ENDBRANCH  10  11
ENDBRANCH   3  10
TORSDOF 5
ENDMDL
MODEL 7
REMARK VINA RESULT:    -3.627      2.184      2.961
REMARK INTER + INTRA:          -5.043
REMARK INTER:                  -4.663
REMARK INTRA:                  -0.380
REMARK UNBOUND:                -0.356
REMARK  5 active torsions:
REMARK  status: ('A' for Active; 'I' for Inactive)
REMARK    1  A    between atoms: C2_3  and  C7_10 
REMARK    2  A    between atoms: C7_10  and  C8_11 
REMARK    3  A    between atoms: C8_11  and  C9_12 
REMARK    4  A    between atoms: C9_12  and  C10_13 
REMARK    5  A    between atoms: C10_13  and  C11_14 
ROOT
HETATM    1  N1  BTN A 300      20.926  -4.078  14.286  1.00 17.73    -0.217 NA
HETATM    2  S1  BTN A 300      22.874  -1.418  13.923  1.00 16.59    -0.137 SA
HETATM    3  C2  BTN A 300      21.977  -1.012  15.478  1.00 17.74     0.072 C 
HETATM    4  N2  BTN A 300      19.894  -2.306  15.037  1.00 17.92    -0.217 NA
HETATM    5  C3  BTN A 300      19.808  -3.350  14.183  1.00 17.95     0.360 A 
HETATM    6  O3  BTN A 300      18.815  -3.542  13.449  1.00 17.93    -0.243 OA
HETATM    7  C4  BTN A 300      21.156  -2.290  15.774  1.00 17.65     0.141 A 
HETATM    8  C5  BTN A 300      21.876  -3.528  15.252  1.00 17.47     0.142 A 
HETATM    9  C6  BTN A 300      23.185  -3.089  14.604  1.00 17.06     0.084 C 
ENDROOT
BRANCH   3  10
HETATM   10  C7  BTN A 300      21.114   0.180  15.568  1.00 18.33     0.013 C 
BRANCH  10  11
HETATM   11  C8  BTN A 300      21.650   1.609  15.629  1.00 19.24     0.002 C 
BRANCH  11  12
HETATM   12  C9  BTN A 300      21.990   2.207  14.324  1.00 20.09     0.011 C 
BRANCH  12  13
HETATM   13  C10 BTN A 300      23.296   3.073  14.362  1.00 20.77     0.098 C 
BRANCH  13  14
HETATM   14  C11 BTN A 300      24.497   2.251  14.056  1.00 21.57     0.185 C 
HETATM   15  O11 BTN A 300      24.678   1.615  13.008  1.00 21.65    -0.647 OA
HETATM   16  O12 BTN A 300      25.120   1.808  15.131  1.00 22.67    -0.647 OA
ENDBRANCH  13  14
ENDBRANCH  12  13
ENDBRANCH  11  12
ENDBRANCH  10  11
ENDBRANCH   3  10
TORSDOF 5
ENDMDL
MODEL 8
REMARK VINA RESULT:    -3.573     20.833     22.225
REMARK INTER + INTRA:          -4.974
REMARK INTER:                  -4.744
REMARK INTRA:                  -0.230
REMARK UNBOUND:                -0.356
REMARK  5 active torsions:
REMARK  status: ('A' for Active; 'I' for Inactive)
REMARK    1  A    between atoms: C2_3  and  C7_10 
REMARK    2  A    between atoms: C7_10  and  C8_11 
REMARK    3  A    between atoms: C8_11  and  C9_12 
REMARK    4  A    between atoms: C9_12  and  C10_13 
REMARK    5  A    between atoms: C10_13  and  C11_14 
ROOT
HETATM    1  N1  BTN A 300      22.657  -8.997  -8.110  1.00 17.73    -0.217 NA
HETATM    2  S1  BTN A 300      22.216 -10.401  -5.137  1.00 16.59    -0.137 SA
HETATM    3  C2  BTN A 300      20.882  -9.134  -5.151  1.00 17.74     0.072 C 
HETATM    4  N2  BTN A 300      21.961  -7.494  -6.686  1.00 17.92    -0.217 NA
HETATM    5  C3  BTN A 300      22.933  -7.803  -7.573  1.00 17.95     0.360 A 
HETATM    6  O3  BTN A 300      23.900  -7.046  -7.805  1.00 17.93    -0.243 OA
HETATM    7  C4  BTN A 300      20.949  -8.543  -6.579  1.00 17.65     0.141 A 
HETATM    8  C5  BTN A 300      21.433  -9.591  -7.575  1.00 17.47     0.142 A 
HETATM    9  C6  BTN A 300      21.692 -10.891  -6.822  1.00 17.06     0.084 C 
ENDROOT
BRANCH   3  10
HETATM   10  C7  BTN A 300      20.854  -8.049  -4.152  1.00 18.33     0.013 C 
BRANCH  10  11
HETATM   11  C8  BTN A 300      19.968  -8.068  -2.908  1.00 19.24     0.002 C 
BRANCH  11  12
HETATM   12  C9  BTN A 300      18.954  -9.140  -2.876  1.00 20.09     0.011 C 
BRANCH  12  13
HETATM   13  C10 BTN A 300      17.645  -8.729  -2.118  1.00 20.77     0.098 C 
BRANCH  13  14
HETATM   14  C11 BTN A 300      16.718  -9.883  -1.977  1.00 21.57     0.185 C 
HETATM   15  O11 BTN A 300      16.074 -10.161  -0.956  1.00 21.65    -0.647 OA
HETATM   16  O12 BTN A 300      16.995 -10.883  -2.791  1.00 22.67    -0.647 OA
ENDBRANCH  13  14
ENDBRANCH  12  13
ENDBRANCH  11  12
ENDBRANCH  10  11
ENDBRANCH   3  10
TORSDOF 5
ENDMDL
MODEL 9
REMARK VINA RESULT:    -3.516      2.174      2.814
REMARK INTER + INTRA:          -4.900
REMARK INTER:                  -4.620
REMARK INTRA:                  -0.280
REMARK UNBOUND:                -0.356
REMARK  5 active torsions:
REMARK  status: ('A' for Active; 'I' for Inactive)
REMARK    1  A    between atoms: C2_3  and  C7_10 
REMARK    2  A    between atoms: C7_10  and  C8_11 
REMARK    3  A    between atoms: C8_11  and  C9_12 
REMARK    4  A    between atoms: C9_12  and  C10_13 
REMARK    5  A    between atoms: C10_13  and  C11_14 
ROOT
HETATM    1  N1  BTN A 300      20.529  -1.644  15.510  1.00 17.73    -0.217 NA
HETATM    2  S1  BTN A 300      21.526   0.811  13.514  1.00 16.59    -0.137 SA
HETATM    3  C2  BTN A 300      22.810  -0.468  13.199  1.00 17.74     0.072 C 
HETATM    4  N2  BTN A 300      22.711  -1.626  15.403  1.00 17.92    -0.217 NA
HETATM    5  C3  BTN A 300      21.649  -1.589  16.239  1.00 17.95     0.360 A 
HETATM    6  O3  BTN A 300      21.771  -1.516  17.481  1.00 17.93    -0.243 OA
HETATM    7  C4  BTN A 300      22.313  -1.696  13.998  1.00 17.65     0.141 A 
HETATM    8  C5  BTN A 300      20.789  -1.711  14.073  1.00 17.47     0.142 A 
HETATM    9  C6  BTN A 300      20.257  -0.495  13.322  1.00 17.06     0.084 C 
ENDROOT
BRANCH   3  10
HETATM   10  C7  BTN A 300      24.231  -0.209  13.497  1.00 18.33     0.013 C 
BRANCH  10  11
HETATM   11  C8  BTN A 300      25.386  -0.921  12.796  1.00 19.24     0.002 C 
BRANCH  11  12
HETATM   12  C9  BTN A 300      26.232  -0.058  11.949  1.00 20.09     0.011 C 
BRANCH  12  13
HETATM   13  C10 BTN A 300      25.740   1.430  11.896  1.00 20.77     0.098 C 
BRANCH  13  14
HETATM   14  C11 BTN A 300      26.877   2.378  12.039  1.00 21.57     0.185 C 
HETATM   15  O11 BTN A 300      26.782   3.613  12.017  1.00 21.65    -0.647 OA
HETATM   16  O12 BTN A 300      28.038   1.869  11.676  1.00 22.67    -0.647 OA
ENDBRANCH  13  14
ENDBRANCH  12  13
ENDBRANCH  11  12
ENDBRANCH  10  11
ENDBRANCH   3  10
TORSDOF 5
ENDMDL
