MODEL 1
REMARK VINA RESULT:    -3.770      0.000      0.000
REMARK INTER + INTRA:          -5.091
REMARK INTER:                  -4.872
REMARK INTRA:                  -0.219
REMARK UNBOUND:                -0.219
REMARK  5 active torsions:
REMARK  status: ('A' for Active; 'I' for Inactive)
REMARK    1  A    between atoms: C2_3  and  C7_10 
REMARK    2  A    between atoms: C7_10  and  C8_11 
REMARK    3  A    between atoms: C8_11  and  C9_12 
REMARK    4  A    between atoms: C9_12  and  C10_13 
REMARK    5  A    between atoms: C10_13  and  C11_14 
ROOT
HETATM    1  N1  BTN A 300       1.633  13.235  -8.392  1.00 17.73    -0.217 NA
HETATM    2  S1  BTN A 300       3.473  14.969 -10.538  1.00 16.59    -0.137 SA
HETATM    3  C2  BTN A 300       3.968  13.242 -10.935  1.00 17.74     0.072 C 
HETATM    4  N2  BTN A 300       3.544  12.225  -8.700  1.00 17.92    -0.217 NA
HETATM    5  C3  BTN A 300       2.710  12.743  -7.771  1.00 17.95     0.360 A 
HETATM    6  O3  BTN A 300       2.969  12.726  -6.548  1.00 17.93    -0.243 OA
HETATM    7  C4  BTN A 300       3.029  12.379 -10.059  1.00 17.65     0.141 A 
HETATM    8  C5  BTN A 300       1.693  13.081  -9.844  1.00 17.47     0.142 A 
HETATM    9  C6  BTN A 300       1.727  14.419 -10.576  1.00 17.06     0.084 C 
ENDROOT
BRANCH   3  10
HETATM   10  C7  BTN A 300       5.365  12.796 -10.777  1.00 18.33     0.013 C 
BRANCH  10  11
HETATM   11  C8  BTN A 300       6.506  13.722 -10.361  1.00 19.24     0.002 C 
BRANCH  11  12
HETATM   12  C9  BTN A 300       7.753  13.568 -11.135  1.00 20.09     0.011 C 
BRANCH  12  13
HETATM   13  C10 BTN A 300       7.675  14.205 -12.566  1.00 20.77     0.098 C 
BRANCH  13  14
HETATM   14  C11 BTN A 300       8.947  14.013 -13.311  1.00 21.57     0.185 C 
HETATM   15  O11 BTN A 300       9.745  13.083 -13.133  1.00 21.65    -0.647 OA
HETATM   16  O12 BTN A 300       9.445  15.132 -13.800  1.00 22.67    -0.647 OA
ENDBRANCH  13  14
ENDBRANCH  12  13
ENDBRANCH  11  12
ENDBRANCH  10  11
ENDBRANCH   3  10
TORSDOF 5
ENDMDL
MODEL 2
REMARK VINA RESULT:    -3.716      3.459      6.129
REMARK INTER + INTRA:          -5.021
REMARK INTER:                  -4.556
REMARK INTRA:                  -0.464
REMARK UNBOUND:                -0.219
REMARK  5 active torsions:
REMARK  status: ('A' for Active; 'I' for Inactive)
REMARK    1  A    between atoms: C2_3  and  C7_10 
REMARK    2  A    between atoms: C7_10  and  C8_11 
REMARK    3  A    between atoms: C8_11  and  C9_12 
REMARK    4  A    between atoms: C9_12  and  C10_13 
REMARK    5  A    between atoms: C10_13  and  C11_14 
ROOT
HETATM    1  N1  BTN A 300       6.965  15.680 -14.346  1.00 17.73    -0.217 NA
HETATM    2  S1  BTN A 300       8.592  16.154 -11.494  1.00 16.59    -0.137 SA
HETATM    3  C2  BTN A 300       8.398  14.325 -11.511  1.00 17.74     0.072 C 
HETATM    4  N2  BTN A 300       6.318  14.198 -12.878  1.00 17.92    -0.217 NA
HETATM    5  C3  BTN A 300       5.899  15.165 -13.723  1.00 17.95     0.360 A 
HETATM    6  O3  BTN A 300       4.694  15.473 -13.850  1.00 17.93    -0.243 OA
HETATM    7  C4  BTN A 300       7.771  14.033 -12.895  1.00 17.65     0.141 A 
HETATM    8  C5  BTN A 300       8.222  15.066 -13.922  1.00 17.47     0.142 A 
HETATM    9  C6  BTN A 300       9.156  16.055 -13.234  1.00 17.06     0.084 C 
ENDROOT
BRANCH   3  10
HETATM   10  C7  BTN A 300       7.642  13.631 -10.452  1.00 18.33     0.013 C 
BRANCH  10  11
HETATM   11  C8  BTN A 300       6.980  14.348  -9.277  1.00 19.24     0.002 C 
BRANCH  11  12
HETATM   12  C9  BTN A 300       5.579  13.966  -9.018  1.00 20.09     0.011 C 
BRANCH  12  13
HETATM   13  C10 BTN A 300       5.115  12.720  -9.848  1.00 20.77     0.098 C 
BRANCH  13  14
HETATM   14  C11 BTN A 300       3.676  12.819 -10.211  1.00 21.57     0.185 C 
HETATM   15  O11 BTN A 300       2.842  11.913 -10.075  1.00 21.65    -0.647 OA
HETATM   16  O12 BTN A 300       3.429  13.713 -11.149  1.00 22.67    -0.647 OA
ENDBRANCH  13  14
ENDBRANCH  12  13
ENDBRANCH  11  12
ENDBRANCH  10  11
ENDBRANCH   3  10
TORSDOF 5
ENDMDL
MODEL 3
REMARK VINA RESULT:    -3.694      5.044      7.122
REMARK INTER + INTRA:          -4.993
REMARK INTER:                  -4.712
REMARK INTRA:                  -0.281
REMARK UNBOUND:                -0.219
REMARK  5 active torsions:
REMARK  status: ('A' for Active; 'I' for Inactive)
REMARK    1  A    between atoms: C2_3  and  C7_10 
REMARK    2  A    between atoms: C7_10  and  C8_11 
REMARK    3  A    between atoms: C8_11  and  C9_12 
REMARK    4  A    between atoms: C9_12  and  C10_13 
REMARK    5  A    between atoms: C10_13  and  C11_14 
ROOT
HETATM    1  N1  BTN A 300       7.730  14.111 -12.714  1.00 17.73    -0.217 NA
HETATM    2  S1  BTN A 300       8.774  16.183 -10.344  1.00 16.59    -0.137 SA
HETATM    3  C2  BTN A 300       9.352  17.039 -11.866  1.00 17.74     0.072 C 
HETATM    4  N2  BTN A 300       9.611  15.036 -13.326  1.00 17.92    -0.217 NA
HETATM    5  C3  BTN A 300       8.977  13.859 -13.128  1.00 17.95     0.360 A 
HETATM    6  O3  BTN A 300       9.528  12.755 -13.324  1.00 17.93    -0.243 OA
HETATM    7  C4  BTN A 300       8.764  16.186 -13.015  1.00 17.65     0.141 A 
HETATM    8  C5  BTN A 300       7.449  15.540 -12.590  1.00 17.47     0.142 A 
HETATM    9  C6  BTN A 300       7.147  15.958 -11.155  1.00 17.06     0.084 C 
ENDROOT
BRANCH   3  10
HETATM   10  C7  BTN A 300      10.787  17.287 -12.100  1.00 18.33     0.013 C 
BRANCH  10  11
HETATM   11  C8  BTN A 300      11.888  16.861 -11.131  1.00 19.24     0.002 C 
BRANCH  11  12
HETATM   12  C9  BTN A 300      13.235  16.748 -11.722  1.00 20.09     0.011 C 
BRANCH  12  13
HETATM   13  C10 BTN A 300      13.991  15.444 -11.291  1.00 20.77     0.098 C 
BRANCH  13  14
HETATM   14  C11 BTN A 300      14.494  15.549  -9.895  1.00 21.57     0.185 C 
HETATM   15  O11 BTN A 300      15.071  16.536  -9.418  1.00 21.65    -0.647 OA
HETATM   16  O12 BTN A 300      14.766  14.382  -9.344  1.00 22.67    -0.647 OA
ENDBRANCH  13  14
ENDBRANCH  12  13
ENDBRANCH  11  12
ENDBRANCH  10  11
ENDBRANCH   3  10
TORSDOF 5
ENDMDL
MODEL 4
REMARK VINA RESULT:    -3.647      2.228      2.964
REMARK INTER + INTRA:          -4.932
REMARK INTER:                  -4.539
REMARK INTRA:                  -0.392
REMARK UNBOUND:                -0.219
REMARK  5 active torsions:
REMARK  status: ('A' for Active; 'I' for Inactive)
REMARK    1  A    between atoms: C2_3  and  C7_10 
REMARK    2  A    between atoms: C7_10  and  C8_11 
REMARK    3  A    between atoms: C8_11  and  C9_12 
REMARK    4  A    between atoms: C9_12  and  C10_13 
REMARK    5  A    between atoms: C10_13  and  C11_14 
ROOT
HETATM    1  N1  BTN A 300       2.986  13.926 -10.911  1.00 17.73    -0.217 NA
HETATM    2  S1  BTN A 300       5.744  15.715 -10.471  1.00 16.59    -0.137 SA
HETATM    3  C2  BTN A 300       6.294  14.489 -11.727  1.00 17.74     0.072 C 
HETATM    4  N2  BTN A 300       4.737  12.638 -11.126  1.00 17.92    -0.217 NA
HETATM    5  C3  BTN A 300       3.568  12.806 -10.468  1.00 17.95     0.360 A 
HETATM    6  O3  BTN A 300       3.161  12.003  -9.601  1.00 17.93    -0.243 OA
HETATM    7  C4  BTN A 300       5.001  13.715 -12.078  1.00 17.65     0.141 A 
HETATM    8  C5  BTN A 300       3.777  14.613 -11.930  1.00 17.47     0.142 A 
HETATM    9  C6  BTN A 300       4.242  15.994 -11.481  1.00 17.06     0.084 C 
ENDROOT
BRANCH   3  10
HETATM   10  C7  BTN A 300       7.390  13.544 -11.438  1.00 18.33     0.013 C 
BRANCH  10  11
HETATM   11  C8  BTN A 300       8.790  13.666 -12.035  1.00 19.24     0.002 C 
BRANCH  11  12
HETATM   12  C9  BTN A 300       8.840  14.181 -13.417  1.00 20.09     0.011 C 
BRANCH  12  13
HETATM   13  C10 BTN A 300       9.449  15.622 -13.518  1.00 20.77     0.098 C 
BRANCH  13  14
HETATM   14  C11 BTN A 300       8.463  16.586 -14.075  1.00 21.57     0.185 C 
HETATM   15  O11 BTN A 300       8.219  17.707 -13.608  1.00 21.65    -0.647 OA
HETATM   16  O12 BTN A 300       7.498  16.012 -14.767  1.00 22.67    -0.647 OA
ENDBRANCH  13  14
ENDBRANCH  12  13
ENDBRANCH  11  12
ENDBRANCH  10  11
ENDBRANCH   3  10
TORSDOF 5
ENDMDL
MODEL 5
REMARK VINA RESULT:    -3.644      3.055      6.510
REMARK INTER + INTRA:          -4.928
REMARK INTER:                  -4.610
REMARK INTRA:                  -0.318
REMARK UNBOUND:                -0.219
REMARK  5 active torsions:
REMARK  status: ('A' for Active; 'I' for Inactive)
REMARK    1  A    between atoms: C2_3  and  C7_10 
REMARK    2  A    between atoms: C7_10  and  C8_11 
REMARK    3  A    between atoms: C8_11  and  C9_12 
REMARK    4  A    between atoms: C9_12  and  C10_13 
REMARK    5  A    between atoms: C10_13  and  C11_14 
ROOT
HETATM    1  N1  BTN A 300       8.619  14.972 -13.308  1.00 17.73    -0.217 NA
HETATM    2  S1  BTN A 300       5.377  14.402 -12.894  1.00 16.59    -0.137 SA
HETATM    3  C2  BTN A 300       5.985  14.368 -11.158  1.00 17.74     0.072 C 
HETATM    4  N2  BTN A 300       8.322  13.630 -11.610  1.00 17.92    -0.217 NA
HETATM    5  C3  BTN A 300       8.956  13.784 -12.794  1.00 17.95     0.360 A 
HETATM    6  O3  BTN A 300       9.720  12.915 -13.267  1.00 17.93    -0.243 OA
HETATM    7  C4  BTN A 300       7.473  14.774 -11.279  1.00 17.65     0.141 A 
HETATM    8  C5  BTN A 300       7.682  15.712 -12.464  1.00 17.47     0.142 A 
HETATM    9  C6  BTN A 300       6.336  15.943 -13.141  1.00 17.06     0.084 C 
ENDROOT
BRANCH   3  10
HETATM   10  C7  BTN A 300       5.854  13.154 -10.330  1.00 18.33     0.013 C 
BRANCH  10  11
HETATM   11  C8  BTN A 300       4.622  12.252 -10.341  1.00 19.24     0.002 C 
BRANCH  11  12
HETATM   12  C9  BTN A 300       3.610  12.560  -9.312  1.00 20.09     0.011 C 
BRANCH  12  13
HETATM   13  C10 BTN A 300       2.161  12.701  -9.894  1.00 20.77     0.098 C 
BRANCH  13  14
HETATM   14  C11 BTN A 300       1.670  14.101  -9.786  1.00 21.57     0.185 C 
HETATM   15  O11 BTN A 300       0.530  14.482 -10.084  1.00 21.65    -0.647 OA
HETATM   16  O12 BTN A 300       2.631  15.002  -9.854  1.00 22.67    -0.647 OA
ENDBRANCH  13  14
ENDBRANCH  12  13
ENDBRANCH  11  12
ENDBRANCH  10  11
ENDBRANCH   3  10
TORSDOF 5
ENDMDL
MODEL 6
REMARK VINA RESULT:    -3.632      4.424      6.655
REMARK INTER + INTRA:          -4.912
REMARK INTER:                  -4.252
REMARK INTRA:                  -0.661
REMARK UNBOUND:                -0.219
REMARK  5 active torsions:
REMARK  status: ('A' for Active; 'I' for Inactive)
REMARK    1  A    between atoms: C2_3  and  C7_10 
REMARK    2  A    between atoms: C7_10  and  C8_11 
REMARK    3  A    between atoms: C8_11  and  C9_12 
REMARK    4  A    between atoms: C9_12  and  C10_13 
REMARK    5  A    between atoms: C10_13  and  C11_14 
ROOT
HETATM    1  N1  BTN A 300       7.861  17.334 -14.503  1.00 17.73    -0.217 NA
HETATM    2  S1  BTN A 300       8.541  16.565 -11.349  1.00 16.59    -0.137 SA
HETATM    3  C2  BTN A 300       9.028  15.020 -12.221  1.00 17.74     0.072 C 
HETATM    4  N2  BTN A 300       7.487  15.208 -14.170  1.00 17.92    -0.217 NA
HETATM    5  C3  BTN A 300       6.943  16.366 -14.605  1.00 17.95     0.360 A 
HETATM    6  O3  BTN A 300       5.768  16.444 -15.023  1.00 17.93    -0.243 OA
HETATM    7  C4  BTN A 300       8.867  15.375 -13.718  1.00 17.65     0.141 A 
HETATM    8  C5  BTN A 300       9.129  16.859 -13.953  1.00 17.47     0.142 A 
HETATM    9  C6  BTN A 300       9.470  17.507 -12.615  1.00 17.06     0.084 C 
ENDROOT
BRANCH   3  10
HETATM   10  C7  BTN A 300       8.360  13.738 -11.927  1.00 18.33     0.013 C 
BRANCH  10  11
HETATM   11  C8  BTN A 300       7.394  13.536 -10.761  1.00 19.24     0.002 C 
BRANCH  11  12
HETATM   12  C9  BTN A 300       5.986  13.317 -11.144  1.00 20.09     0.011 C 
BRANCH  12  13
HETATM   13  C10 BTN A 300       5.187  14.651 -11.349  1.00 20.77     0.098 C 
BRANCH  13  14
HETATM   14  C11 BTN A 300       4.210  14.529 -12.463  1.00 21.57     0.185 C 
HETATM   15  O11 BTN A 300       4.363  13.826 -13.471  1.00 21.65    -0.647 OA
HETATM   16  O12 BTN A 300       3.420  15.578 -12.588  1.00 22.67    -0.647 OA
ENDBRANCH  13  14
ENDBRANCH  12  13
ENDBRANCH  11  12
ENDBRANCH  10  11
ENDBRANCH   3  10
TORSDOF 5
ENDMDL
MODEL 7
REMARK VINA RESULT:    -3.627      2.832      5.984
REMARK INTER + INTRA:          -4.906
REMARK INTER:                  -4.511
REMARK INTRA:                  -0.395
REMARK UNBOUND:                -0.219
REMARK  5 active torsions:
REMARK  status: ('A' for Active; 'I' for Inactive)
REMARK    1  A    between atoms: C2_3  and  C7_10 
REMARK    2  A    between atoms: C7_10  and  C8_11 
REMARK    3  A    between atoms: C8_11  and  C9_12 
REMARK    4  A    between atoms: C9_12  and  C10_13 
REMARK    5  A    between atoms: C10_13  and  C11_14 
ROOT
HETATM    1  N1  BTN A 300       8.138  15.158 -12.773  1.00 17.73    -0.217 NA
HETATM    2  S1  BTN A 300       4.915  14.561 -13.279  1.00 16.59    -0.137 SA
HETATM    3  C2  BTN A 300       5.106  14.092 -11.511  1.00 17.74     0.072 C 
HETATM    4  N2  BTN A 300       7.512  13.447 -11.569  1.00 17.92    -0.217 NA
HETATM    5  C3  BTN A 300       8.396  13.875 -12.498  1.00 17.95     0.360 A 
HETATM    6  O3  BTN A 300       9.284  13.136 -12.975  1.00 17.93    -0.243 OA
HETATM    7  C4  BTN A 300       6.564  14.489 -11.179  1.00 17.65     0.141 A 
HETATM    8  C5  BTN A 300       7.003  15.685 -12.017  1.00 17.47     0.142 A 
HETATM    9  C6  BTN A 300       5.841  16.098 -12.914  1.00 17.06     0.084 C 
ENDROOT
BRANCH   3  10
HETATM   10  C7  BTN A 300       4.837  12.715 -11.056  1.00 18.33     0.013 C 
BRANCH  10  11
HETATM   11  C8  BTN A 300       3.708  12.347 -10.095  1.00 19.24     0.002 C 
BRANCH  11  12
HETATM   12  C9  BTN A 300       4.142  11.938  -8.746  1.00 20.09     0.011 C 
BRANCH  12  13
HETATM   13  C10 BTN A 300       3.886  13.035  -7.655  1.00 20.77     0.098 C 
BRANCH  13  14
HETATM   14  C11 BTN A 300       5.164  13.541  -7.088  1.00 21.57     0.185 C 
HETATM   15  O11 BTN A 300       6.061  14.098  -7.736  1.00 21.65    -0.647 OA
HETATM   16  O12 BTN A 300       5.531  12.923  -5.982  1.00 22.67    -0.647 OA
ENDBRANCH  13  14
ENDBRANCH  12  13
ENDBRANCH  11  12
ENDBRANCH  10  11
ENDBRANCH   3  10
TORSDOF 5
ENDMDL
MODEL 8
REMARK VINA RESULT:    -3.626      3.050      6.448
REMARK INTER + INTRA:          -4.904
REMARK INTER:                  -4.692
REMARK INTRA:                  -0.212
REMARK UNBOUND:                -0.219
REMARK  5 active torsions:
REMARK  status: ('A' for Active; 'I' for Inactive)
REMARK    1  A    between atoms: C2_3  and  C7_10 
REMARK    2  A    between atoms: C7_10  and  C8_11 
REMARK    3  A    between atoms: C8_11  and  C9_12 
REMARK    4  A    between atoms: C9_12  and  C10_13 
REMARK    5  A    between atoms: C10_13  and  C11_14 
ROOT
HETATM    1  N1  BTN A 300       6.023  14.127 -12.505  1.00 17.73    -0.217 NA
HETATM    2  S1  BTN A 300       5.491  15.106  -9.380  1.00 16.59    -0.137 SA
HETATM    3  C2  BTN A 300       4.997  13.336  -9.304  1.00 17.74     0.072 C 
HETATM    4  N2  BTN A 300       4.308  13.053 -11.682  1.00 17.92    -0.217 NA
HETATM    5  C3  BTN A 300       4.731  13.837 -12.698  1.00 17.95     0.360 A 
HETATM    6  O3  BTN A 300       3.982  14.191 -13.634  1.00 17.93    -0.243 OA
HETATM    7  C4  BTN A 300       5.363  12.789 -10.704  1.00 17.65     0.141 A 
HETATM    8  C5  BTN A 300       6.561  13.537 -11.280  1.00 17.47     0.142 A 
HETATM    9  C6  BTN A 300       7.007  14.587 -10.269  1.00 17.06     0.084 C 
ENDROOT
BRANCH   3  10
HETATM   10  C7  BTN A 300       3.619  12.945  -8.949  1.00 18.33     0.013 C 
BRANCH  10  11
HETATM   11  C8  BTN A 300       3.194  12.532  -7.542  1.00 19.24     0.002 C 
BRANCH  11  12
HETATM   12  C9  BTN A 300       4.283  12.037  -6.678  1.00 20.09     0.011 C 
BRANCH  12  13
HETATM   13  C10 BTN A 300       3.772  11.157  -5.484  1.00 20.77     0.098 C 
BRANCH  13  14
HETATM   14  C11 BTN A 300       4.818  10.200  -5.034  1.00 21.57     0.185 C 
HETATM   15  O11 BTN A 300       4.599   9.080  -4.551  1.00 21.65    -0.647 OA
HETATM   16  O12 BTN A 300       5.951  10.780  -4.691  1.00 22.67    -0.647 OA
ENDBRANCH  13  14
ENDBRANCH  12  13
ENDBRANCH  11  12
ENDBRANCH  10  11
ENDBRANCH   3  10
TORSDOF 5
ENDMDL
MODEL 9
REMARK VINA RESULT:    -3.537      4.206      6.231
REMARK INTER + INTRA:          -4.790
REMARK INTER:                  -4.349
REMARK INTRA:                  -0.441
REMARK UNBOUND:                -0.219
REMARK  5 active torsions:
REMARK  status: ('A' for Active; 'I' for Inactive)
REMARK    1  A    between atoms: C2_3  and  C7_10 
REMARK    2  A    between atoms: C7_10  and  C8_11 
REMARK    3  A    between atoms: C8_11  and  C9_12 
REMARK    4  A    between atoms: C9_12  and  C10_13 
REMARK    5  A    between atoms: C10_13  and  C11_14 
ROOT
HETATM    1  N1  BTN A 300       9.697  16.808 -11.946  1.00 17.73    -0.217 NA
HETATM    2  S1  BTN A 300       9.196  13.615 -12.690  1.00 16.59    -0.137 SA
HETATM    3  C2  BTN A 300       7.598  14.067 -11.898  1.00 17.74     0.072 C 
HETATM    4  N2  BTN A 300       8.435  15.890 -10.419  1.00 17.92    -0.217 NA
HETATM    5  C3  BTN A 300       9.574  16.585 -10.633  1.00 17.95     0.360 A 
HETATM    6  O3  BTN A 300      10.337  16.931  -9.706  1.00 17.93    -0.243 OA
HETATM    7  C4  BTN A 300       7.722  15.591 -11.660  1.00 17.65     0.141 A 
HETATM    8  C5  BTN A 300       8.602  16.234 -12.726  1.00 17.47     0.142 A 
HETATM    9  C6  BTN A 300       9.072  15.147 -13.687  1.00 17.06     0.084 C 
ENDROOT
BRANCH   3  10
HETATM   10  C7  BTN A 300       7.143  13.394 -10.667  1.00 18.33     0.013 C 
BRANCH  10  11
HETATM   11  C8  BTN A 300       5.693  12.989 -10.411  1.00 19.24     0.002 C 
BRANCH  11  12
HETATM   12  C9  BTN A 300       4.824  12.983 -11.603  1.00 20.09     0.011 C 
BRANCH  12  13
HETATM   13  C10 BTN A 300       3.941  14.273 -11.731  1.00 20.77     0.098 C 
BRANCH  13  14
HETATM   14  C11 BTN A 300       3.953  14.799 -13.121  1.00 21.57     0.185 C 
HETATM   15  O11 BTN A 300       4.790  14.509 -13.987  1.00 21.65    -0.647 OA
HETATM   16  O12 BTN A 300       3.355  15.968 -13.247  1.00 22.67    -0.647 OA
ENDBRANCH  13  14
ENDBRANCH  12  13
ENDBRANCH  11  12
ENDBRANCH  10  11
ENDBRANCH   3  10
TORSDOF 5
ENDMDL
