MODEL 1
REMARK VINA RESULT:    -4.189      0.000      0.000
REMARK INTER + INTRA:          -5.597
REMARK INTER:                  -5.413
REMARK INTRA:                  -0.184
REMARK UNBOUND:                -0.184
REMARK  5 active torsions:
REMARK  status: ('A' for Active; 'I' for Inactive)
REMARK    1  A    between atoms: C2_3  and  C7_10 
REMARK    2  A    between atoms: C7_10  and  C8_11 
REMARK    3  A    between atoms: C8_11  and  C9_12 
REMARK    4  A    between atoms: C9_12  and  C10_13 
REMARK    5  A    between atoms: C10_13  and  C11_14 
ROOT
HETATM    1  N1  BTN A 300      12.553   9.021  10.765  1.00 17.73    -0.217 NA
HETATM    2  S1  BTN A 300       9.884   9.647   8.897  1.00 16.59    -0.137 SA
HETATM    3  C2  BTN A 300      11.214   9.565   7.629  1.00 17.74     0.072 C 
HETATM    4  N2  BTN A 300      13.124  10.269   9.066  1.00 17.92    -0.217 NA
HETATM    5  C3  BTN A 300      13.144  10.168  10.414  1.00 17.95     0.360 A 
HETATM    6  O3  BTN A 300      13.652  11.043  11.148  1.00 17.93    -0.243 OA
HETATM    7  C4  BTN A 300      12.464   9.130   8.431  1.00 17.65     0.141 A 
HETATM    8  C5  BTN A 300      12.067   8.257   9.617  1.00 17.47     0.142 A 
HETATM    9  C6  BTN A 300      10.550   8.100   9.615  1.00 17.06     0.084 C 
ENDROOT
BRANCH   3  10
HETATM   10  C7  BTN A 300      11.533  10.732   6.784  1.00 18.33     0.013 C 
BRANCH  10  11
HETATM   11  C8  BTN A 300      10.973  10.936   5.378  1.00 19.24     0.002 C 
BRANCH  11  12
HETATM   12  C9  BTN A 300      11.938  10.723   4.282  1.00 20.09     0.011 C 
BRANCH  12  13
HETATM   13  C10 BTN A 300      11.868  11.830   3.174  1.00 20.77     0.098 C 
BRANCH  13  14
HETATM   14  C11 BTN A 300      11.460  11.256   1.864  1.00 21.57     0.185 C 
HETATM   15  O11 BTN A 300      10.813  10.211   1.713  1.00 21.65    -0.647 OA
HETATM   16  O12 BTN A 300      12.244  11.615   0.865  1.00 22.67    -0.647 OA
ENDBRANCH  13  14
ENDBRANCH  12  13
ENDBRANCH  11  12
ENDBRANCH  10  11
ENDBRANCH   3  10
TORSDOF 5
ENDMDL
MODEL 2
REMARK VINA RESULT:    -3.939      1.993      2.477
REMARK INTER + INTRA:          -5.274
REMARK INTER:                  -4.981
REMARK INTRA:                  -0.293
REMARK UNBOUND:                -0.184
REMARK  5 active torsions:
REMARK  status: ('A' for Active; 'I' for Inactive)
REMARK    1  A    between atoms: C2_3  and  C7_10 
REMARK    2  A    between atoms: C7_10  and  C8_11 
REMARK    3  A    between atoms: C8_11  and  C9_12 
REMARK    4  A    between atoms: C9_12  and  C10_13 
REMARK    5  A    between atoms: C10_13  and  C11_14 
ROOT
HETATM    1  N1  BTN A 300      10.409   7.687   8.511  1.00 17.73    -0.217 NA
HETATM    2  S1  BTN A 300       8.920  10.376   7.264  1.00 16.59    -0.137 SA
HETATM    3  C2  BTN A 300      10.094   9.943   5.915  1.00 17.74     0.072 C 
HETATM    4  N2  BTN A 300      11.833   8.818   7.302  1.00 17.92    -0.217 NA
HETATM    5  C3  BTN A 300      11.608   8.280   8.521  1.00 17.95     0.360 A 
HETATM    6  O3  BTN A 300      12.433   8.361   9.456  1.00 17.93    -0.243 OA
HETATM    7  C4  BTN A 300      10.716   8.605   6.383  1.00 17.65     0.141 A 
HETATM    8  C5  BTN A 300       9.723   7.813   7.226  1.00 17.47     0.142 A 
HETATM    9  C6  BTN A 300       8.429   8.613   7.327  1.00 17.06     0.084 C 
ENDROOT
BRANCH   3  10
HETATM   10  C7  BTN A 300      11.155  10.880   5.500  1.00 18.33     0.013 C 
BRANCH  10  11
HETATM   11  C8  BTN A 300      11.978  10.714   4.224  1.00 19.24     0.002 C 
BRANCH  11  12
HETATM   12  C9  BTN A 300      11.723  11.723   3.178  1.00 20.09     0.011 C 
BRANCH  12  13
HETATM   13  C10 BTN A 300      11.633  11.111   1.738  1.00 20.77     0.098 C 
BRANCH  13  14
HETATM   14  C11 BTN A 300      10.330  10.426   1.524  1.00 21.57     0.185 C 
HETATM   15  O11 BTN A 300      10.194   9.242   1.186  1.00 21.65    -0.647 OA
HETATM   16  O12 BTN A 300       9.349  11.247   1.205  1.00 22.67    -0.647 OA
ENDBRANCH  13  14
ENDBRANCH  12  13
ENDBRANCH  11  12
ENDBRANCH  10  11
ENDBRANCH   3  10
TORSDOF 5
ENDMDL
MODEL 3
REMARK VINA RESULT:    -3.875      1.752      2.017
REMARK INTER + INTRA:          -5.192
REMARK INTER:                  -4.795
REMARK INTRA:                  -0.396
REMARK UNBOUND:                -0.184
REMARK  5 active torsions:
REMARK  status: ('A' for Active; 'I' for Inactive)
REMARK    1  A    between atoms: C2_3  and  C7_10 
REMARK    2  A    between atoms: C7_10  and  C8_11 
REMARK    3  A    between atoms: C8_11  and  C9_12 
REMARK    4  A    between atoms: C9_12  and  C10_13 
REMARK    5  A    between atoms: C10_13  and  C11_14 
ROOT
HETATM    1  N1  BTN A 300      11.830   9.020  10.230  1.00 17.73    -0.217 NA
HETATM    2  S1  BTN A 300       9.724   9.851   7.806  1.00 16.59    -0.137 SA
HETATM    3  C2  BTN A 300      11.098   9.082   6.855  1.00 17.74     0.072 C 
HETATM    4  N2  BTN A 300      12.954   9.581   8.442  1.00 17.92    -0.217 NA
HETATM    5  C3  BTN A 300      12.786   9.830   9.760  1.00 17.95     0.360 A 
HETATM    6  O3  BTN A 300      13.453  10.691  10.374  1.00 17.93    -0.243 OA
HETATM    7  C4  BTN A 300      12.049   8.544   7.951  1.00 17.65     0.141 A 
HETATM    8  C5  BTN A 300      11.266   8.150   9.199  1.00 17.47     0.142 A 
HETATM    9  C6  BTN A 300       9.787   8.420   8.947  1.00 17.06     0.084 C 
ENDROOT
BRANCH   3  10
HETATM   10  C7  BTN A 300      11.859   9.858   5.858  1.00 18.33     0.013 C 
BRANCH  10  11
HETATM   11  C8  BTN A 300      11.236  10.929   4.965  1.00 19.24     0.002 C 
BRANCH  11  12
HETATM   12  C9  BTN A 300      10.958  10.506   3.579  1.00 20.09     0.011 C 
BRANCH  12  13
HETATM   13  C10 BTN A 300       9.472  10.056   3.357  1.00 20.77     0.098 C 
BRANCH  13  14
HETATM   14  C11 BTN A 300       9.384   8.593   3.106  1.00 21.57     0.185 C 
HETATM   15  O11 BTN A 300       9.412   7.716   3.980  1.00 21.65    -0.647 OA
HETATM   16  O12 BTN A 300       9.790   8.240   1.901  1.00 22.67    -0.647 OA
ENDBRANCH  13  14
ENDBRANCH  12  13
ENDBRANCH  11  12
ENDBRANCH  10  11
ENDBRANCH   3  10
TORSDOF 5
ENDMDL
MODEL 4
REMARK VINA RESULT:    -3.852     14.584     16.105
REMARK INTER + INTRA:          -5.162
REMARK INTER:                  -4.990
REMARK INTRA:                  -0.171
REMARK UNBOUND:                -0.184
REMARK  5 active torsions:
REMARK  status: ('A' for Active; 'I' for Inactive)
REMARK    1  A    between atoms: C2_3  and  C7_10 
REMARK    2  A    between atoms: C7_10  and  C8_11 
REMARK    3  A    between atoms: C8_11  and  C9_12 
REMARK    4  A    between atoms: C9_12  and  C10_13 
REMARK    5  A    between atoms: C10_13  and  C11_14 
ROOT
HETATM    1  N1  BTN A 300       8.108  -7.734   2.631  1.00 17.73    -0.217 NA
HETATM    2  S1  BTN A 300      10.815  -5.817   2.560  1.00 16.59    -0.137 SA
HETATM    3  C2  BTN A 300       9.963  -5.201   4.070  1.00 17.74     0.072 C 
HETATM    4  N2  BTN A 300       7.624  -5.752   3.412  1.00 17.92    -0.217 NA
HETATM    5  C3  BTN A 300       7.288  -6.686   2.495  1.00 17.95     0.360 A 
HETATM    6  O3  BTN A 300       6.350  -6.528   1.684  1.00 17.93    -0.243 OA
HETATM    7  C4  BTN A 300       8.761  -6.161   4.234  1.00 17.65     0.141 A 
HETATM    8  C5  BTN A 300       9.098  -7.546   3.691  1.00 17.47     0.142 A 
HETATM    9  C6  BTN A 300      10.528  -7.523   3.161  1.00 17.06     0.084 C 
ENDROOT
BRANCH   3  10
HETATM   10  C7  BTN A 300       9.513  -3.800   4.170  1.00 18.33     0.013 C 
BRANCH  10  11
HETATM   11  C8  BTN A 300       9.024  -3.160   5.468  1.00 19.24     0.002 C 
BRANCH  11  12
HETATM   12  C9  BTN A 300       9.304  -1.718   5.600  1.00 20.09     0.011 C 
BRANCH  12  13
HETATM   13  C10 BTN A 300      10.044  -1.352   6.933  1.00 20.77     0.098 C 
BRANCH  13  14
HETATM   14  C11 BTN A 300       9.372  -0.224   7.631  1.00 21.57     0.185 C 
HETATM   15  O11 BTN A 300       8.747   0.689   7.074  1.00 21.65    -0.647 OA
HETATM   16  O12 BTN A 300       9.894   0.052   8.811  1.00 22.67    -0.647 OA
ENDBRANCH  13  14
ENDBRANCH  12  13
ENDBRANCH  11  12
ENDBRANCH  10  11
ENDBRANCH   3  10
TORSDOF 5
ENDMDL
MODEL 5
REMARK VINA RESULT:    -3.799     15.977     17.222
REMARK INTER + INTRA:          -5.094
REMARK INTER:                  -4.656
REMARK INTRA:                  -0.438
REMARK UNBOUND:                -0.184
REMARK  5 active torsions:
REMARK  status: ('A' for Active; 'I' for Inactive)
REMARK    1  A    between atoms: C2_3  and  C7_10 
REMARK    2  A    between atoms: C7_10  and  C8_11 
REMARK    3  A    between atoms: C8_11  and  C9_12 
REMARK    4  A    between atoms: C9_12  and  C10_13 
REMARK    5  A    between atoms: C10_13  and  C11_14 
ROOT
HETATM    1  N1  BTN A 300      21.874  -1.539  18.041  1.00 17.73    -0.217 NA
HETATM    2  S1  BTN A 300      22.608   1.594  17.238  1.00 16.59    -0.137 SA
HETATM    3  C2  BTN A 300      21.000   1.357  16.376  1.00 17.74     0.072 C 
HETATM    4  N2  BTN A 300      21.139  -1.107  16.030  1.00 17.92    -0.217 NA
HETATM    5  C3  BTN A 300      21.909  -1.939  16.765  1.00 17.95     0.360 A 
HETATM    6  O3  BTN A 300      22.524  -2.906  16.266  1.00 17.93    -0.243 OA
HETATM    7  C4  BTN A 300      20.538  -0.046  16.836  1.00 17.65     0.141 A 
HETATM    8  C5  BTN A 300      21.049  -0.349  18.241  1.00 17.47     0.142 A 
HETATM    9  C6  BTN A 300      21.854   0.849  18.731  1.00 17.06     0.084 C 
ENDROOT
BRANCH   3  10
HETATM   10  C7  BTN A 300      20.900   1.470  14.908  1.00 18.33     0.013 C 
BRANCH  10  11
HETATM   11  C8  BTN A 300      22.066   1.880  14.011  1.00 19.24     0.002 C 
BRANCH  11  12
HETATM   12  C9  BTN A 300      22.830   0.762  13.425  1.00 20.09     0.011 C 
BRANCH  12  13
HETATM   13  C10 BTN A 300      24.299   0.669  13.965  1.00 20.77     0.098 C 
BRANCH  13  14
HETATM   14  C11 BTN A 300      25.226   1.503  13.154  1.00 21.57     0.185 C 
HETATM   15  O11 BTN A 300      25.615   2.639  13.458  1.00 21.65    -0.647 OA
HETATM   16  O12 BTN A 300      25.210   1.209  11.868  1.00 22.67    -0.647 OA
ENDBRANCH  13  14
ENDBRANCH  12  13
ENDBRANCH  11  12
ENDBRANCH  10  11
ENDBRANCH   3  10
TORSDOF 5
ENDMDL
MODEL 6
REMARK VINA RESULT:    -3.746      1.743      2.172
REMARK INTER + INTRA:          -5.025
REMARK INTER:                  -4.772
REMARK INTRA:                  -0.253
REMARK UNBOUND:                -0.184
REMARK  5 active torsions:
REMARK  status: ('A' for Active; 'I' for Inactive)
REMARK    1  A    between atoms: C2_3  and  C7_10 
REMARK    2  A    between atoms: C7_10  and  C8_11 
REMARK    3  A    between atoms: C8_11  and  C9_12 
REMARK    4  A    between atoms: C9_12  and  C10_13 
REMARK    5  A    between atoms: C10_13  and  C11_14 
ROOT
HETATM    1  N1  BTN A 300      12.292  11.209  11.316  1.00 17.73    -0.217 NA
HETATM    2  S1  BTN A 300      11.216   8.488   9.753  1.00 16.59    -0.137 SA
HETATM    3  C2  BTN A 300      12.521   9.086   8.602  1.00 17.74     0.072 C 
HETATM    4  N2  BTN A 300      12.403  11.512   9.155  1.00 17.92    -0.217 NA
HETATM    5  C3  BTN A 300      11.913  12.009  10.313  1.00 17.95     0.360 A 
HETATM    6  O3  BTN A 300      11.227  13.053  10.362  1.00 17.93    -0.243 OA
HETATM    7  C4  BTN A 300      13.159  10.277   9.354  1.00 17.65     0.141 A 
HETATM    8  C5  BTN A 300      13.084  10.067  10.863  1.00 17.47     0.142 A 
HETATM    9  C6  BTN A 300      12.397   8.732  11.131  1.00 17.06     0.084 C 
ENDROOT
BRANCH   3  10
HETATM   10  C7  BTN A 300      12.193   9.474   7.217  1.00 18.33     0.013 C 
BRANCH  10  11
HETATM   11  C8  BTN A 300      10.952   8.985   6.474  1.00 19.24     0.002 C 
BRANCH  11  12
HETATM   12  C9  BTN A 300      10.729   9.602   5.152  1.00 20.09     0.011 C 
BRANCH  12  13
HETATM   13  C10 BTN A 300      11.938  10.475   4.666  1.00 20.77     0.098 C 
BRANCH  13  14
HETATM   14  C11 BTN A 300      11.554  11.335   3.515  1.00 21.57     0.185 C 
HETATM   15  O11 BTN A 300      11.990  11.220   2.362  1.00 21.65    -0.647 OA
HETATM   16  O12 BTN A 300      11.133  12.534   3.871  1.00 22.67    -0.647 OA
ENDBRANCH  13  14
ENDBRANCH  12  13
ENDBRANCH  11  12
ENDBRANCH  10  11
ENDBRANCH   3  10
TORSDOF 5
ENDMDL
MODEL 7
REMARK VINA RESULT:    -3.729      3.528      7.207
REMARK INTER + INTRA:          -5.003
REMARK INTER:                  -4.780
REMARK INTRA:                  -0.223
REMARK UNBOUND:                -0.184
REMARK  5 active torsions:
REMARK  status: ('A' for Active; 'I' for Inactive)
REMARK    1  A    between atoms: C2_3  and  C7_10 
REMARK    2  A    between atoms: C7_10  and  C8_11 
REMARK    3  A    between atoms: C8_11  and  C9_12 
REMARK    4  A    between atoms: C9_12  and  C10_13 
REMARK    5  A    between atoms: C10_13  and  C11_14 
ROOT
HETATM    1  N1  BTN A 300       8.756  11.174   2.262  1.00 17.73    -0.217 NA
HETATM    2  S1  BTN A 300      10.834  12.634   4.396  1.00 16.59    -0.137 SA
HETATM    3  C2  BTN A 300      11.637  10.996   4.157  1.00 17.74     0.072 C 
HETATM    4  N2  BTN A 300       9.597   9.674   3.608  1.00 17.92    -0.217 NA
HETATM    5  C3  BTN A 300       8.449  10.203   3.129  1.00 17.95     0.360 A 
HETATM    6  O3  BTN A 300       7.321   9.799   3.484  1.00 17.93    -0.243 OA
HETATM    7  C4  BTN A 300      10.784  10.324   3.055  1.00 17.65     0.141 A 
HETATM    8  C5  BTN A 300      10.197  11.370   2.113  1.00 17.47     0.142 A 
HETATM    9  C6  BTN A 300      10.654  12.749   2.577  1.00 17.06     0.084 C 
ENDROOT
BRANCH   3  10
HETATM   10  C7  BTN A 300      11.826  10.070   5.290  1.00 18.33     0.013 C 
BRANCH  10  11
HETATM   11  C8  BTN A 300      11.562  10.450   6.745  1.00 19.24     0.002 C 
BRANCH  11  12
HETATM   12  C9  BTN A 300      11.428   9.312   7.676  1.00 20.09     0.011 C 
BRANCH  12  13
HETATM   13  C10 BTN A 300      12.775   8.931   8.382  1.00 20.77     0.098 C 
BRANCH  13  14
HETATM   14  C11 BTN A 300      12.867   9.545   9.734  1.00 21.57     0.185 C 
HETATM   15  O11 BTN A 300      13.394  10.637   9.986  1.00 21.65    -0.647 OA
HETATM   16  O12 BTN A 300      12.831   8.665  10.716  1.00 22.67    -0.647 OA
ENDBRANCH  13  14
ENDBRANCH  12  13
ENDBRANCH  11  12
ENDBRANCH  10  11
ENDBRANCH   3  10
TORSDOF 5
ENDMDL
MODEL 8
REMARK VINA RESULT:    -3.717     15.728     17.346
REMARK INTER + INTRA:          -4.988
REMARK INTER:                  -4.567
REMARK INTRA:                  -0.420
REMARK UNBOUND:                -0.184
REMARK  5 active torsions:
REMARK  status: ('A' for Active; 'I' for Inactive)
REMARK    1  A    between atoms: C2_3  and  C7_10 
REMARK    2  A    between atoms: C7_10  and  C8_11 
REMARK    3  A    between atoms: C8_11  and  C9_12 
REMARK    4  A    between atoms: C9_12  and  C10_13 
REMARK    5  A    between atoms: C10_13  and  C11_14 
ROOT
HETATM    1  N1  BTN A 300      22.141  -2.304  18.078  1.00 17.73    -0.217 NA
HETATM    2  S1  BTN A 300      23.694   0.622  17.910  1.00 16.59    -0.137 SA
HETATM    3  C2  BTN A 300      21.930   1.131  17.798  1.00 17.74     0.072 C 
HETATM    4  N2  BTN A 300      21.019  -0.952  16.780  1.00 17.92    -0.217 NA
HETATM    5  C3  BTN A 300      21.614  -2.164  16.857  1.00 17.95     0.360 A 
HETATM    6  O3  BTN A 300      21.627  -2.970  15.902  1.00 17.93    -0.243 OA
HETATM    7  C4  BTN A 300      21.150  -0.187  18.018  1.00 17.65     0.141 A 
HETATM    8  C5  BTN A 300      21.931  -1.131  18.926  1.00 17.47     0.142 A 
HETATM    9  C6  BTN A 300      23.237  -0.451  19.322  1.00 17.06     0.084 C 
ENDROOT
BRANCH   3  10
HETATM   10  C7  BTN A 300      21.416   1.835  16.608  1.00 18.33     0.013 C 
BRANCH  10  11
HETATM   11  C8  BTN A 300      22.300   2.302  15.454  1.00 19.24     0.002 C 
BRANCH  11  12
HETATM   12  C9  BTN A 300      21.840   1.904  14.109  1.00 20.09     0.011 C 
BRANCH  12  13
HETATM   13  C10 BTN A 300      20.597   0.948  14.140  1.00 20.77     0.098 C 
BRANCH  13  14
HETATM   14  C11 BTN A 300      20.795  -0.222  13.244  1.00 21.57     0.185 C 
HETATM   15  O11 BTN A 300      19.901  -0.992  12.868  1.00 21.65    -0.647 OA
HETATM   16  O12 BTN A 300      22.020  -0.712  13.279  1.00 22.67    -0.647 OA
ENDBRANCH  13  14
ENDBRANCH  12  13
ENDBRANCH  11  12
ENDBRANCH  10  11
ENDBRANCH   3  10
TORSDOF 5
ENDMDL
MODEL 9
REMARK VINA RESULT:    -3.711     15.831     16.734
REMARK INTER + INTRA:          -4.979
REMARK INTER:                  -4.606
REMARK INTRA:                  -0.374
REMARK UNBOUND:                -0.184
REMARK  5 active torsions:
REMARK  status: ('A' for Active; 'I' for Inactive)
REMARK    1  A    between atoms: C2_3  and  C7_10 
REMARK    2  A    between atoms: C7_10  and  C8_11 
REMARK    3  A    between atoms: C8_11  and  C9_12 
REMARK    4  A    between atoms: C9_12  and  C10_13 
REMARK    5  A    between atoms: C10_13  and  C11_14 
ROOT
HETATM    1  N1  BTN A 300      20.616  -1.428  16.135  1.00 17.73    -0.217 NA
HETATM    2  S1  BTN A 300      22.936   0.841  16.823  1.00 16.59    -0.137 SA
HETATM    3  C2  BTN A 300      21.789   1.797  15.748  1.00 17.74     0.072 C 
HETATM    4  N2  BTN A 300      20.876  -0.103  14.419  1.00 17.92    -0.217 NA
HETATM    5  C3  BTN A 300      20.882  -1.392  14.825  1.00 17.95     0.360 A 
HETATM    6  O3  BTN A 300      21.104  -2.344  14.046  1.00 17.93    -0.243 OA
HETATM    7  C4  BTN A 300      20.607   0.826  15.514  1.00 17.65     0.141 A 
HETATM    8  C5  BTN A 300      20.422  -0.099  16.713  1.00 17.47     0.142 A 
HETATM    9  C6  BTN A 300      21.477   0.247  17.758  1.00 17.06     0.084 C 
ENDROOT
BRANCH   3  10
HETATM   10  C7  BTN A 300      22.244   2.363  14.465  1.00 18.33     0.013 C 
BRANCH  10  11
HETATM   11  C8  BTN A 300      23.713   2.575  14.108  1.00 19.24     0.002 C 
BRANCH  11  12
HETATM   12  C9  BTN A 300      24.408   3.608  14.900  1.00 20.09     0.011 C 
BRANCH  12  13
HETATM   13  C10 BTN A 300      23.545   4.897  15.126  1.00 20.77     0.098 C 
BRANCH  13  14
HETATM   14  C11 BTN A 300      23.307   5.140  16.574  1.00 21.57     0.185 C 
HETATM   15  O11 BTN A 300      22.866   6.191  17.058  1.00 21.65    -0.647 OA
HETATM   16  O12 BTN A 300      24.058   4.395  17.363  1.00 22.67    -0.647 OA
ENDBRANCH  13  14
ENDBRANCH  12  13
ENDBRANCH  11  12
ENDBRANCH  10  11
ENDBRANCH   3  10
TORSDOF 5
ENDMDL
