MODEL 1
REMARK VINA RESULT:    -3.961      0.000      0.000
REMARK INTER + INTRA:          -5.456
REMARK INTER:                  -5.119
REMARK INTRA:                  -0.337
REMARK UNBOUND:                -0.337
REMARK  5 active torsions:
REMARK  status: ('A' for Active; 'I' for Inactive)
REMARK    1  A    between atoms: C2_3  and  C7_10 
REMARK    2  A    between atoms: C7_10  and  C8_11 
REMARK    3  A    between atoms: C8_11  and  C9_12 
REMARK    4  A    between atoms: C9_12  and  C10_13 
REMARK    5  A    between atoms: C10_13  and  C11_14 
ROOT
HETATM    1  N1  BTN A 300       8.478  -5.983  -8.436  1.00 17.73    -0.217 NA
HETATM    2  S1  BTN A 300       6.434  -3.896 -10.009  1.00 16.59    -0.137 SA
HETATM    3  C2  BTN A 300       8.057  -3.464 -10.761  1.00 17.74     0.072 C 
HETATM    4  N2  BTN A 300       9.520  -4.108  -8.850  1.00 17.92    -0.217 NA
HETATM    5  C3  BTN A 300       9.170  -4.982  -7.880  1.00 17.95     0.360 A 
HETATM    6  O3  BTN A 300       9.480  -4.818  -6.680  1.00 17.93    -0.243 OA
HETATM    7  C4  BTN A 300       9.030  -4.510 -10.167  1.00 17.65     0.141 A 
HETATM    8  C5  BTN A 300       8.304  -5.820  -9.879  1.00 17.47     0.142 A 
HETATM    9  C6  BTN A 300       6.842  -5.661 -10.280  1.00 17.06     0.084 C 
ENDROOT
BRANCH   3  10
HETATM   10  C7  BTN A 300       8.621  -2.108 -10.623  1.00 18.33     0.013 C 
BRANCH  10  11
HETATM   11  C8  BTN A 300       7.820  -0.830 -10.865  1.00 19.24     0.002 C 
BRANCH  11  12
HETATM   12  C9  BTN A 300       7.598  -0.489 -12.283  1.00 20.09     0.011 C 
BRANCH  12  13
HETATM   13  C10 BTN A 300       8.879  -0.668 -13.170  1.00 20.77     0.098 C 
BRANCH  13  14
HETATM   14  C11 BTN A 300       8.641  -1.637 -14.272  1.00 21.57     0.185 C 
HETATM   15  O11 BTN A 300       9.325  -2.645 -14.496  1.00 21.65    -0.647 OA
HETATM   16  O12 BTN A 300       8.000  -1.117 -15.302  1.00 22.67    -0.647 OA
ENDBRANCH  13  14
ENDBRANCH  12  13
ENDBRANCH  11  12
ENDBRANCH  10  11
ENDBRANCH   3  10
TORSDOF 5
ENDMDL
MODEL 2
REMARK VINA RESULT:    -3.961     14.728     15.539
REMARK INTER + INTRA:          -5.456
REMARK INTER:                  -5.239
REMARK INTRA:                  -0.217
REMARK UNBOUND:                -0.337
REMARK  5 active torsions:
REMARK  status: ('A' for Active; 'I' for Inactive)
REMARK    1  A    between atoms: C2_3  and  C7_10 
REMARK    2  A    between atoms: C7_10  and  C8_11 
REMARK    3  A    between atoms: C8_11  and  C9_12 
REMARK    4  A    between atoms: C9_12  and  C10_13 
REMARK    5  A    between atoms: C10_13  and  C11_14 
ROOT
HETATM    1  N1  BTN A 300      19.612  -9.822  -3.033  1.00 17.73    -0.217 NA
HETATM    2  S1  BTN A 300      19.694 -10.107  -6.336  1.00 16.59    -0.137 SA
HETATM    3  C2  BTN A 300      21.326  -9.331  -5.990  1.00 17.74     0.072 C 
HETATM    4  N2  BTN A 300      20.718  -8.143  -3.886  1.00 17.92    -0.217 NA
HETATM    5  C3  BTN A 300      19.685  -8.488  -3.085  1.00 17.95     0.360 A 
HETATM    6  O3  BTN A 300      18.962  -7.642  -2.516  1.00 17.93    -0.243 OA
HETATM    7  C4  BTN A 300      21.403  -9.307  -4.445  1.00 17.65     0.141 A 
HETATM    8  C5  BTN A 300      20.632 -10.480  -3.847  1.00 17.47     0.142 A 
HETATM    9  C6  BTN A 300      20.037 -11.298  -4.988  1.00 17.06     0.084 C 
ENDROOT
BRANCH   3  10
HETATM   10  C7  BTN A 300      21.669  -8.005  -6.537  1.00 18.33     0.013 C 
BRANCH  10  11
HETATM   11  C8  BTN A 300      21.974  -7.753  -8.012  1.00 19.24     0.002 C 
BRANCH  11  12
HETATM   12  C9  BTN A 300      23.078  -6.808  -8.272  1.00 20.09     0.011 C 
BRANCH  12  13
HETATM   13  C10 BTN A 300      24.407  -7.195  -7.535  1.00 20.77     0.098 C 
BRANCH  13  14
HETATM   14  C11 BTN A 300      25.571  -6.468  -8.108  1.00 21.57     0.185 C 
HETATM   15  O11 BTN A 300      26.600  -6.168  -7.487  1.00 21.65    -0.647 OA
HETATM   16  O12 BTN A 300      25.262  -5.709  -9.141  1.00 22.67    -0.647 OA
ENDBRANCH  13  14
ENDBRANCH  12  13
ENDBRANCH  11  12
ENDBRANCH  10  11
ENDBRANCH   3  10
TORSDOF 5
ENDMDL
MODEL 3
REMARK VINA RESULT:    -3.897      2.120      6.104
REMARK INTER + INTRA:          -5.372
REMARK INTER:                  -4.998
REMARK INTRA:                  -0.374
REMARK UNBOUND:                -0.337
REMARK  5 active torsions:
REMARK  status: ('A' for Active; 'I' for Inactive)
REMARK    1  A    between atoms: C2_3  and  C7_10 
REMARK    2  A    between atoms: C7_10  and  C8_11 
REMARK    3  A    between atoms: C8_11  and  C9_12 
REMARK    4  A    between atoms: C9_12  and  C10_13 
REMARK    5  A    between atoms: C10_13  and  C11_14 
ROOT
HETATM    1  N1  BTN A 300       7.210  -1.549 -12.755  1.00 17.73    -0.217 NA
HETATM    2  S1  BTN A 300       6.712  -4.360 -11.064  1.00 16.59    -0.137 SA
HETATM    3  C2  BTN A 300       7.884  -3.466  -9.963  1.00 17.74     0.072 C 
HETATM    4  N2  BTN A 300       9.040  -2.104 -11.699  1.00 17.92    -0.217 NA
HETATM    5  C3  BTN A 300       8.515  -1.801 -12.907  1.00 17.95     0.360 A 
HETATM    6  O3  BTN A 300       9.199  -1.776 -13.953  1.00 17.93    -0.243 OA
HETATM    7  C4  BTN A 300       8.039  -2.081 -10.634  1.00 17.65     0.141 A 
HETATM    8  C5  BTN A 300       6.762  -1.692 -11.370  1.00 17.47     0.142 A 
HETATM    9  C6  BTN A 300       5.742  -2.811 -11.195  1.00 17.06     0.084 C 
ENDROOT
BRANCH   3  10
HETATM   10  C7  BTN A 300       9.210  -4.031  -9.647  1.00 18.33     0.013 C 
BRANCH  10  11
HETATM   11  C8  BTN A 300       9.520  -5.526  -9.672  1.00 19.24     0.002 C 
BRANCH  11  12
HETATM   12  C9  BTN A 300       9.589  -6.174  -8.348  1.00 20.09     0.011 C 
BRANCH  12  13
HETATM   13  C10 BTN A 300       9.438  -5.165  -7.157  1.00 20.77     0.098 C 
BRANCH  13  14
HETATM   14  C11 BTN A 300       8.281  -5.519  -6.293  1.00 21.57     0.185 C 
HETATM   15  O11 BTN A 300       8.248  -6.470  -5.500  1.00 21.65    -0.647 OA
HETATM   16  O12 BTN A 300       7.122  -5.106  -6.769  1.00 22.67    -0.647 OA
ENDBRANCH  13  14
ENDBRANCH  12  13
ENDBRANCH  11  12
ENDBRANCH  10  11
ENDBRANCH   3  10
TORSDOF 5
ENDMDL
MODEL 4
REMARK VINA RESULT:    -3.841      3.076      4.405
REMARK INTER + INTRA:          -5.301
REMARK INTER:                  -4.911
REMARK INTRA:                  -0.389
REMARK UNBOUND:                -0.337
REMARK  5 active torsions:
REMARK  status: ('A' for Active; 'I' for Inactive)
REMARK    1  A    between atoms: C2_3  and  C7_10 
REMARK    2  A    between atoms: C7_10  and  C8_11 
REMARK    3  A    between atoms: C8_11  and  C9_12 
REMARK    4  A    between atoms: C9_12  and  C10_13 
REMARK    5  A    between atoms: C10_13  and  C11_14 
ROOT
HETATM    1  N1  BTN A 300       6.177  -6.628  -5.867  1.00 17.73    -0.217 NA
HETATM    2  S1  BTN A 300       8.980  -7.603  -7.350  1.00 16.59    -0.137 SA
HETATM    3  C2  BTN A 300       9.286  -5.803  -7.125  1.00 17.74     0.072 C 
HETATM    4  N2  BTN A 300       6.917  -5.030  -7.159  1.00 17.92    -0.217 NA
HETATM    5  C3  BTN A 300       5.853  -5.815  -6.878  1.00 17.95     0.360 A 
HETATM    6  O3  BTN A 300       4.773  -5.735  -7.503  1.00 17.93    -0.243 OA
HETATM    7  C4  BTN A 300       8.066  -5.321  -6.304  1.00 17.65     0.141 A 
HETATM    8  C5  BTN A 300       7.549  -6.435  -5.400  1.00 17.47     0.142 A 
HETATM    9  C6  BTN A 300       8.420  -7.669  -5.607  1.00 17.06     0.084 C 
ENDROOT
BRANCH   3  10
HETATM   10  C7  BTN A 300       9.501  -4.918  -8.285  1.00 18.33     0.013 C 
BRANCH  10  11
HETATM   11  C8  BTN A 300       9.441  -5.395  -9.735  1.00 19.24     0.002 C 
BRANCH  11  12
HETATM   12  C9  BTN A 300       9.469  -4.323 -10.749  1.00 20.09     0.011 C 
BRANCH  12  13
HETATM   13  C10 BTN A 300       8.961  -2.943 -10.204  1.00 20.77     0.098 C 
BRANCH  13  14
HETATM   14  C11 BTN A 300       7.595  -2.636 -10.703  1.00 21.57     0.185 C 
HETATM   15  O11 BTN A 300       7.259  -1.579 -11.256  1.00 21.65    -0.647 OA
HETATM   16  O12 BTN A 300       6.644  -3.307 -10.083  1.00 22.67    -0.647 OA
ENDBRANCH  13  14
ENDBRANCH  12  13
ENDBRANCH  11  12
ENDBRANCH  10  11
ENDBRANCH   3  10
TORSDOF 5
ENDMDL
MODEL 5
REMARK VINA RESULT:    -3.788     15.113     15.840
REMARK INTER + INTRA:          -5.231
REMARK INTER:                  -5.030
REMARK INTRA:                  -0.202
REMARK UNBOUND:                -0.337
REMARK  5 active torsions:
REMARK  status: ('A' for Active; 'I' for Inactive)
REMARK    1  A    between atoms: C2_3  and  C7_10 
REMARK    2  A    between atoms: C7_10  and  C8_11 
REMARK    3  A    between atoms: C8_11  and  C9_12 
REMARK    4  A    between atoms: C9_12  and  C10_13 
REMARK    5  A    between atoms: C10_13  and  C11_14 
ROOT
HETATM    1  N1  BTN A 300      20.565 -10.868  -1.374  1.00 17.73    -0.217 NA
HETATM    2  S1  BTN A 300      19.245  -8.146  -2.734  1.00 16.59    -0.137 SA
HETATM    3  C2  BTN A 300      20.021  -8.952  -4.194  1.00 17.74     0.072 C 
HETATM    4  N2  BTN A 300      21.839 -10.173  -3.006  1.00 17.92    -0.217 NA
HETATM    5  C3  BTN A 300      21.810 -10.500  -1.695  1.00 17.95     0.360 A 
HETATM    6  O3  BTN A 300      22.822 -10.444  -0.963  1.00 17.93    -0.243 OA
HETATM    7  C4  BTN A 300      20.530 -10.305  -3.643  1.00 17.65     0.141 A 
HETATM    8  C5  BTN A 300      19.641 -10.793  -2.504  1.00 17.47     0.142 A 
HETATM    9  C6  BTN A 300      18.529  -9.771  -2.287  1.00 17.06     0.084 C 
ENDROOT
BRANCH   3  10
HETATM   10  C7  BTN A 300      21.090  -8.278  -4.956  1.00 18.33     0.013 C 
BRANCH  10  11
HETATM   11  C8  BTN A 300      21.510  -8.687  -6.366  1.00 19.24     0.002 C 
BRANCH  11  12
HETATM   12  C9  BTN A 300      22.162  -7.627  -7.159  1.00 20.09     0.011 C 
BRANCH  12  13
HETATM   13  C10 BTN A 300      23.633  -7.982  -7.572  1.00 20.77     0.098 C 
BRANCH  13  14
HETATM   14  C11 BTN A 300      24.303  -6.825  -8.224  1.00 21.57     0.185 C 
HETATM   15  O11 BTN A 300      25.389  -6.342  -7.877  1.00 21.65    -0.647 OA
HETATM   16  O12 BTN A 300      23.469  -6.016  -8.847  1.00 22.67    -0.647 OA
ENDBRANCH  13  14
ENDBRANCH  12  13
ENDBRANCH  11  12
ENDBRANCH  10  11
ENDBRANCH   3  10
TORSDOF 5
ENDMDL
MODEL 6
REMARK VINA RESULT:    -3.716      3.063      6.233
REMARK INTER + INTRA:          -5.139
REMARK INTER:                  -4.726
REMARK INTRA:                  -0.413
REMARK UNBOUND:                -0.337
REMARK  5 active torsions:
REMARK  status: ('A' for Active; 'I' for Inactive)
REMARK    1  A    between atoms: C2_3  and  C7_10 
REMARK    2  A    between atoms: C7_10  and  C8_11 
REMARK    3  A    between atoms: C8_11  and  C9_12 
REMARK    4  A    between atoms: C9_12  and  C10_13 
REMARK    5  A    between atoms: C10_13  and  C11_14 
ROOT
HETATM    1  N1  BTN A 300       7.438   0.423 -13.408  1.00 17.73    -0.217 NA
HETATM    2  S1  BTN A 300       7.082  -2.384 -11.677  1.00 16.59    -0.137 SA
HETATM    3  C2  BTN A 300       8.713  -2.651 -12.486  1.00 17.74     0.072 C 
HETATM    4  N2  BTN A 300       8.349  -1.233 -14.502  1.00 17.92    -0.217 NA
HETATM    5  C3  BTN A 300       7.449  -0.227 -14.577  1.00 17.95     0.360 A 
HETATM    6  O3  BTN A 300       6.776   0.000 -15.605  1.00 17.93    -0.243 OA
HETATM    7  C4  BTN A 300       8.998  -1.305 -13.194  1.00 17.65     0.141 A 
HETATM    8  C5  BTN A 300       8.364  -0.147 -12.431  1.00 17.47     0.142 A 
HETATM    9  C6  BTN A 300       7.652  -0.709 -11.205  1.00 17.06     0.084 C 
ENDROOT
BRANCH   3  10
HETATM   10  C7  BTN A 300       8.925  -3.773 -13.419  1.00 18.33     0.013 C 
BRANCH  10  11
HETATM   11  C8  BTN A 300       9.812  -4.976 -13.108  1.00 19.24     0.002 C 
BRANCH  11  12
HETATM   12  C9  BTN A 300      10.279  -5.066 -11.711  1.00 20.09     0.011 C 
BRANCH  12  13
HETATM   13  C10 BTN A 300       9.277  -5.823 -10.773  1.00 20.77     0.098 C 
BRANCH  13  14
HETATM   14  C11 BTN A 300       9.269  -5.235  -9.406  1.00 21.57     0.185 C 
HETATM   15  O11 BTN A 300       9.196  -4.025  -9.151  1.00 21.65    -0.647 OA
HETATM   16  O12 BTN A 300       9.855  -5.995  -8.502  1.00 22.67    -0.647 OA
ENDBRANCH  13  14
ENDBRANCH  12  13
ENDBRANCH  11  12
ENDBRANCH  10  11
ENDBRANCH   3  10
TORSDOF 5
ENDMDL
MODEL 7
REMARK VINA RESULT:    -3.617     15.107     17.279
REMARK INTER + INTRA:          -5.010
REMARK INTER:                  -4.697
REMARK INTRA:                  -0.313
REMARK UNBOUND:                -0.337
REMARK  5 active torsions:
REMARK  status: ('A' for Active; 'I' for Inactive)
REMARK    1  A    between atoms: C2_3  and  C7_10 
REMARK    2  A    between atoms: C7_10  and  C8_11 
REMARK    3  A    between atoms: C8_11  and  C9_12 
REMARK    4  A    between atoms: C9_12  and  C10_13 
REMARK    5  A    between atoms: C10_13  and  C11_14 
ROOT
HETATM    1  N1  BTN A 300       8.771  -5.749   3.936  1.00 17.73    -0.217 NA
HETATM    2  S1  BTN A 300       9.402  -5.415   7.175  1.00 16.59    -0.137 SA
HETATM    3  C2  BTN A 300       9.155  -3.665   6.662  1.00 17.74     0.072 C 
HETATM    4  N2  BTN A 300       9.858  -3.887   4.282  1.00 17.92    -0.217 NA
HETATM    5  C3  BTN A 300       9.856  -5.047   3.589  1.00 17.95     0.360 A 
HETATM    6  O3  BTN A 300      10.753  -5.347   2.773  1.00 17.93    -0.243 OA
HETATM    7  C4  BTN A 300       8.713  -3.773   5.184  1.00 17.65     0.141 A 
HETATM    8  C5  BTN A 300       7.953  -5.072   4.940  1.00 17.47     0.142 A 
HETATM    9  C6  BTN A 300       7.878  -5.842   6.254  1.00 17.06     0.084 C 
ENDROOT
BRANCH   3  10
HETATM   10  C7  BTN A 300      10.237  -2.673   6.799  1.00 18.33     0.013 C 
BRANCH  10  11
HETATM   11  C8  BTN A 300      10.034  -1.276   7.383  1.00 19.24     0.002 C 
BRANCH  11  12
HETATM   12  C9  BTN A 300       8.627  -0.857   7.532  1.00 20.09     0.011 C 
BRANCH  12  13
HETATM   13  C10 BTN A 300       8.136   0.081   6.375  1.00 20.77     0.098 C 
BRANCH  13  14
HETATM   14  C11 BTN A 300       8.124   1.505   6.804  1.00 21.57     0.185 C 
HETATM   15  O11 BTN A 300       9.062   2.090   7.362  1.00 21.65    -0.647 OA
HETATM   16  O12 BTN A 300       6.913   1.975   7.035  1.00 22.67    -0.647 OA
ENDBRANCH  13  14
ENDBRANCH  12  13
ENDBRANCH  11  12
ENDBRANCH  10  11
ENDBRANCH   3  10
TORSDOF 5
ENDMDL
MODEL 8
REMARK VINA RESULT:    -3.509     14.948     15.955
REMARK INTER + INTRA:          -4.871
REMARK INTER:                  -4.628
REMARK INTRA:                  -0.243
REMARK UNBOUND:                -0.337
REMARK  5 active torsions:
REMARK  status: ('A' for Active; 'I' for Inactive)
REMARK    1  A    between atoms: C2_3  and  C7_10 
REMARK    2  A    between atoms: C7_10  and  C8_11 
REMARK    3  A    between atoms: C8_11  and  C9_12 
REMARK    4  A    between atoms: C9_12  and  C10_13 
REMARK    5  A    between atoms: C10_13  and  C11_14 
ROOT
HETATM    1  N1  BTN A 300      11.236  -9.343   2.961  1.00 17.73    -0.217 NA
HETATM    2  S1  BTN A 300       8.382  -7.690   3.316  1.00 16.59    -0.137 SA
HETATM    3  C2  BTN A 300       9.435  -6.437   2.475  1.00 17.74     0.072 C 
HETATM    4  N2  BTN A 300      11.652  -7.225   3.294  1.00 17.92    -0.217 NA
HETATM    5  C3  BTN A 300      11.904  -8.478   3.733  1.00 17.95     0.360 A 
HETATM    6  O3  BTN A 300      12.651  -8.714   4.706  1.00 17.93    -0.243 OA
HETATM    7  C4  BTN A 300      10.738  -7.206   2.153  1.00 17.65     0.141 A 
HETATM    8  C5  BTN A 300      10.449  -8.685   1.919  1.00 17.47     0.142 A 
HETATM    9  C6  BTN A 300       8.951  -8.916   2.080  1.00 17.06     0.084 C 
ENDROOT
BRANCH   3  10
HETATM   10  C7  BTN A 300       9.749  -5.150   3.123  1.00 18.33     0.013 C 
BRANCH  10  11
HETATM   11  C8  BTN A 300       8.960  -4.581   4.300  1.00 19.24     0.002 C 
BRANCH  11  12
HETATM   12  C9  BTN A 300       9.350  -3.221   4.718  1.00 20.09     0.011 C 
BRANCH  12  13
HETATM   13  C10 BTN A 300       9.121  -2.954   6.246  1.00 20.77     0.098 C 
BRANCH  13  14
HETATM   14  C11 BTN A 300      10.403  -2.670   6.943  1.00 21.57     0.185 C 
HETATM   15  O11 BTN A 300      11.100  -3.512   7.526  1.00 21.65    -0.647 OA
HETATM   16  O12 BTN A 300      10.512  -1.423   7.358  1.00 22.67    -0.647 OA
ENDBRANCH  13  14
ENDBRANCH  12  13
ENDBRANCH  11  12
ENDBRANCH  10  11
ENDBRANCH   3  10
TORSDOF 5
ENDMDL
MODEL 9
REMARK VINA RESULT:    -3.430     15.144     18.275
REMARK INTER + INTRA:          -4.770
REMARK INTER:                  -4.555
REMARK INTRA:                  -0.215
REMARK UNBOUND:                -0.337
REMARK  5 active torsions:
REMARK  status: ('A' for Active; 'I' for Inactive)
REMARK    1  A    between atoms: C2_3  and  C7_10 
REMARK    2  A    between atoms: C7_10  and  C8_11 
REMARK    3  A    between atoms: C8_11  and  C9_12 
REMARK    4  A    between atoms: C9_12  and  C10_13 
REMARK    5  A    between atoms: C10_13  and  C11_14 
ROOT
HETATM    1  N1  BTN A 300      20.822  -8.561  -5.042  1.00 17.73    -0.217 NA
HETATM    2  S1  BTN A 300      18.857  -9.754  -2.651  1.00 16.59    -0.137 SA
HETATM    3  C2  BTN A 300      20.528 -10.054  -1.942  1.00 17.74     0.072 C 
HETATM    4  N2  BTN A 300      21.791 -10.265  -4.080  1.00 17.92    -0.217 NA
HETATM    5  C3  BTN A 300      21.382  -9.755  -5.263  1.00 17.95     0.360 A 
HETATM    6  O3  BTN A 300      21.537 -10.358  -6.347  1.00 17.93    -0.243 OA
HETATM    7  C4  BTN A 300      21.485  -9.383  -2.956  1.00 17.65     0.141 A 
HETATM    8  C5  BTN A 300      20.811  -8.191  -3.628  1.00 17.47     0.142 A 
HETATM    9  C6  BTN A 300      19.399  -8.055  -3.067  1.00 17.06     0.084 C 
ENDROOT
BRANCH   3  10
HETATM   10  C7  BTN A 300      20.990 -11.421  -1.635  1.00 18.33     0.013 C 
BRANCH  10  11
HETATM   11  C8  BTN A 300      20.943 -12.035  -0.238  1.00 19.24     0.002 C 
BRANCH  11  12
HETATM   12  C9  BTN A 300      21.885 -11.449   0.736  1.00 20.09     0.011 C 
BRANCH  12  13
HETATM   13  C10 BTN A 300      23.212 -10.934   0.079  1.00 20.77     0.098 C 
BRANCH  13  14
HETATM   14  C11 BTN A 300      24.071 -10.237   1.073  1.00 21.57     0.185 C 
HETATM   15  O11 BTN A 300      25.307 -10.302   1.118  1.00 21.65    -0.647 OA
HETATM   16  O12 BTN A 300      23.452  -9.966   2.206  1.00 22.67    -0.647 OA
ENDBRANCH  13  14
ENDBRANCH  12  13
ENDBRANCH  11  12
ENDBRANCH  10  11
ENDBRANCH   3  10
TORSDOF 5
ENDMDL
