MODEL 1
REMARK VINA RESULT:    -3.712      0.000      0.000
REMARK INTER + INTRA:          -5.286
REMARK INTER:                  -4.797
REMARK INTRA:                  -0.490
REMARK UNBOUND:                -0.490
REMARK  5 active torsions:
REMARK  status: ('A' for Active; 'I' for Inactive)
REMARK    1  A    between atoms: C2_3  and  C7_10 
REMARK    2  A    between atoms: C7_10  and  C8_11 
REMARK    3  A    between atoms: C8_11  and  C9_12 
REMARK    4  A    between atoms: C9_12  and  C10_13 
REMARK    5  A    between atoms: C10_13  and  C11_14 
ROOT
HETATM    1  N1  BTN A 300      21.451  -2.242  15.620  1.00 17.73    -0.217 NA
HETATM    2  S1  BTN A 300      21.928   0.839  16.754  1.00 16.59    -0.137 SA
HETATM    3  C2  BTN A 300      21.212   1.162  15.091  1.00 17.74     0.072 C 
HETATM    4  N2  BTN A 300      21.976  -0.923  13.960  1.00 17.92    -0.217 NA
HETATM    5  C3  BTN A 300      22.303  -2.066  14.604  1.00 17.95     0.360 A 
HETATM    6  O3  BTN A 300      23.258  -2.790  14.249  1.00 17.93    -0.243 OA
HETATM    7  C4  BTN A 300      20.834  -0.246  14.571  1.00 17.65     0.141 A 
HETATM    8  C5  BTN A 300      20.466  -1.168  15.729  1.00 17.47     0.142 A 
HETATM    9  C6  BTN A 300      20.593  -0.383  17.031  1.00 17.06     0.084 C 
ENDROOT
BRANCH   3  10
HETATM   10  C7  BTN A 300      21.975   1.895  14.063  1.00 18.33     0.013 C 
BRANCH  10  11
HETATM   11  C8  BTN A 300      23.004   2.977  14.386  1.00 19.24     0.002 C 
BRANCH  11  12
HETATM   12  C9  BTN A 300      24.379   2.690  13.934  1.00 20.09     0.011 C 
BRANCH  12  13
HETATM   13  C10 BTN A 300      24.723   1.160  13.937  1.00 20.77     0.098 C 
BRANCH  13  14
HETATM   14  C11 BTN A 300      25.211   0.714  12.605  1.00 21.57     0.185 C 
HETATM   15  O11 BTN A 300      25.409   1.457  11.633  1.00 21.65    -0.647 OA
HETATM   16  O12 BTN A 300      24.935  -0.547  12.338  1.00 22.67    -0.647 OA
ENDBRANCH  13  14
ENDBRANCH  12  13
ENDBRANCH  11  12
ENDBRANCH  10  11
ENDBRANCH   3  10
TORSDOF 5
ENDMDL
MODEL 2
REMARK VINA RESULT:    -3.704      1.903      2.345
REMARK INTER + INTRA:          -5.276
REMARK INTER:                  -4.667
REMARK INTRA:                  -0.609
REMARK UNBOUND:                -0.490
REMARK  5 active torsions:
REMARK  status: ('A' for Active; 'I' for Inactive)
REMARK    1  A    between atoms: C2_3  and  C7_10 
REMARK    2  A    between atoms: C7_10  and  C8_11 
REMARK    3  A    between atoms: C8_11  and  C9_12 
REMARK    4  A    between atoms: C9_12  and  C10_13 
REMARK    5  A    between atoms: C10_13  and  C11_14 
ROOT
HETATM    1  N1  BTN A 300      20.796  -1.690  14.620  1.00 17.73    -0.217 NA
HETATM    2  S1  BTN A 300      23.241  -0.512  16.527  1.00 16.59    -0.137 SA
HETATM    3  C2  BTN A 300      21.814   0.507  17.081  1.00 17.74     0.072 C 
HETATM    4  N2  BTN A 300      20.487   0.443  14.973  1.00 17.92    -0.217 NA
HETATM    5  C3  BTN A 300      20.611  -0.508  14.021  1.00 17.95     0.360 A 
HETATM    6  O3  BTN A 300      20.550  -0.252  12.799  1.00 17.93    -0.243 OA
HETATM    7  C4  BTN A 300      20.609  -0.101  16.324  1.00 17.65     0.141 A 
HETATM    8  C5  BTN A 300      20.822  -1.591  16.078  1.00 17.47     0.142 A 
HETATM    9  C6  BTN A 300      22.169  -1.991  16.670  1.00 17.06     0.084 C 
ENDROOT
BRANCH   3  10
HETATM   10  C7  BTN A 300      21.823   1.974  16.928  1.00 18.33     0.013 C 
BRANCH  10  11
HETATM   11  C8  BTN A 300      23.100   2.805  16.820  1.00 19.24     0.002 C 
BRANCH  11  12
HETATM   12  C9  BTN A 300      23.158   3.718  15.662  1.00 20.09     0.011 C 
BRANCH  12  13
HETATM   13  C10 BTN A 300      22.848   3.007  14.299  1.00 20.77     0.098 C 
BRANCH  13  14
HETATM   14  C11 BTN A 300      23.988   2.157  13.863  1.00 21.57     0.185 C 
HETATM   15  O11 BTN A 300      25.145   2.558  13.674  1.00 21.65    -0.647 OA
HETATM   16  O12 BTN A 300      23.618   1.083  13.192  1.00 22.67    -0.647 OA
ENDBRANCH  13  14
ENDBRANCH  12  13
ENDBRANCH  11  12
ENDBRANCH  10  11
ENDBRANCH   3  10
TORSDOF 5
ENDMDL
MODEL 3
REMARK VINA RESULT:    -3.696      9.217     11.246
REMARK INTER + INTRA:          -5.267
REMARK INTER:                  -5.062
REMARK INTRA:                  -0.205
REMARK UNBOUND:                -0.490
REMARK  5 active torsions:
REMARK  status: ('A' for Active; 'I' for Inactive)
REMARK    1  A    between atoms: C2_3  and  C7_10 
REMARK    2  A    between atoms: C7_10  and  C8_11 
REMARK    3  A    between atoms: C8_11  and  C9_12 
REMARK    4  A    between atoms: C9_12  and  C10_13 
REMARK    5  A    between atoms: C10_13  and  C11_14 
ROOT
HETATM    1  N1  BTN A 300      27.954  -1.354   9.323  1.00 17.73    -0.217 NA
HETATM    2  S1  BTN A 300      29.763  -2.386   6.742  1.00 16.59    -0.137 SA
HETATM    3  C2  BTN A 300      28.051  -2.684   6.138  1.00 17.74     0.072 C 
HETATM    4  N2  BTN A 300      26.947  -3.028   8.345  1.00 17.92    -0.217 NA
HETATM    5  C3  BTN A 300      27.431  -2.569   9.521  1.00 17.95     0.360 A 
HETATM    6  O3  BTN A 300      27.364  -3.228  10.581  1.00 17.93    -0.243 OA
HETATM    7  C4  BTN A 300      27.158  -2.084   7.249  1.00 17.65     0.141 A 
HETATM    8  C5  BTN A 300      27.858  -0.914   7.932  1.00 17.47     0.142 A 
HETATM    9  C6  BTN A 300      29.224  -0.721   7.282  1.00 17.06     0.084 C 
ENDROOT
BRANCH   3  10
HETATM   10  C7  BTN A 300      27.592  -4.043   5.795  1.00 18.33     0.013 C 
BRANCH  10  11
HETATM   11  C8  BTN A 300      28.330  -4.965   4.826  1.00 19.24     0.002 C 
BRANCH  11  12
HETATM   12  C9  BTN A 300      27.628  -6.221   4.498  1.00 20.09     0.011 C 
BRANCH  12  13
HETATM   13  C10 BTN A 300      26.118  -6.008   4.134  1.00 20.77     0.098 C 
BRANCH  13  14
HETATM   14  C11 BTN A 300      25.651  -7.025   3.154  1.00 21.57     0.185 C 
HETATM   15  O11 BTN A 300      24.692  -7.791   3.324  1.00 21.65    -0.647 OA
HETATM   16  O12 BTN A 300      26.595  -7.434   2.329  1.00 22.67    -0.647 OA
ENDBRANCH  13  14
ENDBRANCH  12  13
ENDBRANCH  11  12
ENDBRANCH  10  11
ENDBRANCH   3  10
TORSDOF 5
ENDMDL
MODEL 4
REMARK VINA RESULT:    -3.634      1.899      2.662
REMARK INTER + INTRA:          -5.186
REMARK INTER:                  -4.513
REMARK INTRA:                  -0.673
REMARK UNBOUND:                -0.490
REMARK  5 active torsions:
REMARK  status: ('A' for Active; 'I' for Inactive)
REMARK    1  A    between atoms: C2_3  and  C7_10 
REMARK    2  A    between atoms: C7_10  and  C8_11 
REMARK    3  A    between atoms: C8_11  and  C9_12 
REMARK    4  A    between atoms: C9_12  and  C10_13 
REMARK    5  A    between atoms: C10_13  and  C11_14 
ROOT
HETATM    1  N1  BTN A 300      21.996  -1.244  18.526  1.00 17.73    -0.217 NA
HETATM    2  S1  BTN A 300      22.758   1.689  17.175  1.00 16.59    -0.137 SA
HETATM    3  C2  BTN A 300      21.137   1.326  16.385  1.00 17.74     0.072 C 
HETATM    4  N2  BTN A 300      21.243  -1.162  16.477  1.00 17.92    -0.217 NA
HETATM    5  C3  BTN A 300      22.012  -1.863  17.340  1.00 17.95     0.360 A 
HETATM    6  O3  BTN A 300      22.609  -2.911  17.013  1.00 17.93    -0.243 OA
HETATM    7  C4  BTN A 300      20.664   0.033  17.089  1.00 17.65     0.141 A 
HETATM    8  C5  BTN A 300      21.188  -0.026  18.521  1.00 17.47     0.142 A 
HETATM    9  C6  BTN A 300      22.014   1.229  18.784  1.00 17.06     0.084 C 
ENDROOT
BRANCH   3  10
HETATM   10  C7  BTN A 300      21.021   1.180  14.921  1.00 18.33     0.013 C 
BRANCH  10  11
HETATM   11  C8  BTN A 300      21.933   1.893  13.926  1.00 19.24     0.002 C 
BRANCH  11  12
HETATM   12  C9  BTN A 300      23.139   1.141  13.529  1.00 20.09     0.011 C 
BRANCH  12  13
HETATM   13  C10 BTN A 300      22.842  -0.358  13.175  1.00 20.77     0.098 C 
BRANCH  13  14
HETATM   14  C11 BTN A 300      23.764  -1.275  13.897  1.00 21.57     0.185 C 
HETATM   15  O11 BTN A 300      23.649  -2.507  13.947  1.00 21.65    -0.647 OA
HETATM   16  O12 BTN A 300      24.400  -0.700  14.899  1.00 22.67    -0.647 OA
ENDBRANCH  13  14
ENDBRANCH  12  13
ENDBRANCH  11  12
ENDBRANCH  10  11
ENDBRANCH   3  10
TORSDOF 5
ENDMDL
MODEL 5
REMARK VINA RESULT:    -3.585      2.981      3.476
REMARK INTER + INTRA:          -5.123
REMARK INTER:                  -4.707
REMARK INTRA:                  -0.416
REMARK UNBOUND:                -0.490
REMARK  5 active torsions:
REMARK  status: ('A' for Active; 'I' for Inactive)
REMARK    1  A    between atoms: C2_3  and  C7_10 
REMARK    2  A    between atoms: C7_10  and  C8_11 
REMARK    3  A    between atoms: C8_11  and  C9_12 
REMARK    4  A    between atoms: C9_12  and  C10_13 
REMARK    5  A    between atoms: C10_13  and  C11_14 
ROOT
HETATM    1  N1  BTN A 300      20.419  -3.302  15.347  1.00 17.73    -0.217 NA
HETATM    2  S1  BTN A 300      23.381  -2.177  14.367  1.00 16.59    -0.137 SA
HETATM    3  C2  BTN A 300      22.455  -0.608  14.624  1.00 17.74     0.072 C 
HETATM    4  N2  BTN A 300      20.159  -1.472  14.183  1.00 17.92    -0.217 NA
HETATM    5  C3  BTN A 300      19.798  -2.770  14.288  1.00 17.95     0.360 A 
HETATM    6  O3  BTN A 300      19.007  -3.317  13.490  1.00 17.93    -0.243 OA
HETATM    7  C4  BTN A 300      21.105  -1.070  15.223  1.00 17.65     0.141 A 
HETATM    8  C5  BTN A 300      21.284  -2.347  16.037  1.00 17.47     0.142 A 
HETATM    9  C6  BTN A 300      22.755  -2.747  15.991  1.00 17.06     0.084 C 
ENDROOT
BRANCH   3  10
HETATM   10  C7  BTN A 300      22.222   0.328  13.508  1.00 18.33     0.013 C 
BRANCH  10  11
HETATM   11  C8  BTN A 300      22.150   1.844  13.678  1.00 19.24     0.002 C 
BRANCH  11  12
HETATM   12  C9  BTN A 300      23.363   2.471  14.237  1.00 20.09     0.011 C 
BRANCH  12  13
HETATM   13  C10 BTN A 300      23.080   3.335  15.515  1.00 20.77     0.098 C 
BRANCH  13  14
HETATM   14  C11 BTN A 300      22.567   2.495  16.630  1.00 21.57     0.185 C 
HETATM   15  O11 BTN A 300      21.396   2.485  17.035  1.00 21.65    -0.647 OA
HETATM   16  O12 BTN A 300      23.496   2.150  17.500  1.00 22.67    -0.647 OA
ENDBRANCH  13  14
ENDBRANCH  12  13
ENDBRANCH  11  12
ENDBRANCH  10  11
ENDBRANCH   3  10
TORSDOF 5
ENDMDL
MODEL 6
REMARK VINA RESULT:    -3.578     20.411     21.332
REMARK INTER + INTRA:          -5.113
REMARK INTER:                  -4.931
REMARK INTRA:                  -0.182
REMARK UNBOUND:                -0.490
REMARK  5 active torsions:
REMARK  status: ('A' for Active; 'I' for Inactive)
REMARK    1  A    between atoms: C2_3  and  C7_10 
REMARK    2  A    between atoms: C7_10  and  C8_11 
REMARK    3  A    between atoms: C8_11  and  C9_12 
REMARK    4  A    between atoms: C9_12  and  C10_13 
REMARK    5  A    between atoms: C10_13  and  C11_14 
ROOT
HETATM    1  N1  BTN A 300      20.563 -10.983  -1.383  1.00 17.73    -0.217 NA
HETATM    2  S1  BTN A 300      19.119  -8.333  -2.761  1.00 16.59    -0.137 SA
HETATM    3  C2  BTN A 300      19.996  -9.069  -4.201  1.00 17.74     0.072 C 
HETATM    4  N2  BTN A 300      21.846 -10.187  -2.961  1.00 17.92    -0.217 NA
HETATM    5  C3  BTN A 300      21.792 -10.531  -1.655  1.00 17.95     0.360 A 
HETATM    6  O3  BTN A 300      22.772 -10.420  -0.888  1.00 17.93    -0.243 OA
HETATM    7  C4  BTN A 300      20.571 -10.394  -3.646  1.00 17.65     0.141 A 
HETATM    8  C5  BTN A 300      19.676 -10.952  -2.545  1.00 17.47     0.142 A 
HETATM    9  C6  BTN A 300      18.494 -10.007  -2.357  1.00 17.06     0.084 C 
ENDROOT
BRANCH   3  10
HETATM   10  C7  BTN A 300      21.045  -8.319  -4.917  1.00 18.33     0.013 C 
BRANCH  10  11
HETATM   11  C8  BTN A 300      21.522  -8.667  -6.325  1.00 19.24     0.002 C 
BRANCH  11  12
HETATM   12  C9  BTN A 300      21.983  -7.521  -7.132  1.00 20.09     0.011 C 
BRANCH  12  13
HETATM   13  C10 BTN A 300      23.316  -7.807  -7.907  1.00 20.77     0.098 C 
BRANCH  13  14
HETATM   14  C11 BTN A 300      23.803  -6.591  -8.610  1.00 21.57     0.185 C 
HETATM   15  O11 BTN A 300      23.296  -6.106  -9.631  1.00 21.65    -0.647 OA
HETATM   16  O12 BTN A 300      25.084  -6.347  -8.414  1.00 22.67    -0.647 OA
ENDBRANCH  13  14
ENDBRANCH  12  13
ENDBRANCH  11  12
ENDBRANCH  10  11
ENDBRANCH   3  10
TORSDOF 5
ENDMDL
MODEL 7
REMARK VINA RESULT:    -3.577     21.694     22.763
REMARK INTER + INTRA:          -5.112
REMARK INTER:                  -4.928
REMARK INTRA:                  -0.183
REMARK UNBOUND:                -0.490
REMARK  5 active torsions:
REMARK  status: ('A' for Active; 'I' for Inactive)
REMARK    1  A    between atoms: C2_3  and  C7_10 
REMARK    2  A    between atoms: C7_10  and  C8_11 
REMARK    3  A    between atoms: C8_11  and  C9_12 
REMARK    4  A    between atoms: C9_12  and  C10_13 
REMARK    5  A    between atoms: C10_13  and  C11_14 
ROOT
HETATM    1  N1  BTN A 300      19.727 -10.090  -4.726  1.00 17.73    -0.217 NA
HETATM    2  S1  BTN A 300      20.014  -9.029  -7.856  1.00 16.59    -0.137 SA
HETATM    3  C2  BTN A 300      21.715  -8.752  -7.212  1.00 17.74     0.072 C 
HETATM    4  N2  BTN A 300      21.140  -8.427  -4.809  1.00 17.92    -0.217 NA
HETATM    5  C3  BTN A 300      20.009  -8.882  -4.226  1.00 17.95     0.360 A 
HETATM    6  O3  BTN A 300      19.384  -8.226  -3.365  1.00 17.93    -0.243 OA
HETATM    7  C4  BTN A 300      21.678  -9.366  -5.793  1.00 17.65     0.141 A 
HETATM    8  C5  BTN A 300      20.692 -10.528  -5.733  1.00 17.47     0.142 A 
HETATM    9  C6  BTN A 300      20.065 -10.702  -7.112  1.00 17.06     0.084 C 
ENDROOT
BRANCH   3  10
HETATM   10  C7  BTN A 300      22.299  -7.398  -7.166  1.00 18.33     0.013 C 
BRANCH  10  11
HETATM   11  C8  BTN A 300      23.431  -6.934  -8.080  1.00 19.24     0.002 C 
BRANCH  11  12
HETATM   12  C9  BTN A 300      24.791  -7.264  -7.612  1.00 20.09     0.011 C 
BRANCH  12  13
HETATM   13  C10 BTN A 300      25.893  -6.315  -8.199  1.00 20.77     0.098 C 
BRANCH  13  14
HETATM   14  C11 BTN A 300      27.224  -6.599  -7.598  1.00 21.57     0.185 C 
HETATM   15  O11 BTN A 300      28.049  -5.741  -7.257  1.00 21.65    -0.647 OA
HETATM   16  O12 BTN A 300      27.702  -7.787  -7.912  1.00 22.67    -0.647 OA
ENDBRANCH  13  14
ENDBRANCH  12  13
ENDBRANCH  11  12
ENDBRANCH  10  11
ENDBRANCH   3  10
TORSDOF 5
ENDMDL
MODEL 8
REMARK VINA RESULT:    -3.469      1.759      2.354
REMARK INTER + INTRA:          -4.972
REMARK INTER:                  -4.663
REMARK INTRA:                  -0.309
REMARK UNBOUND:                -0.490
REMARK  5 active torsions:
REMARK  status: ('A' for Active; 'I' for Inactive)
REMARK    1  A    between atoms: C2_3  and  C7_10 
REMARK    2  A    between atoms: C7_10  and  C8_11 
REMARK    3  A    between atoms: C8_11  and  C9_12 
REMARK    4  A    between atoms: C9_12  and  C10_13 
REMARK    5  A    between atoms: C10_13  and  C11_14 
ROOT
HETATM    1  N1  BTN A 300      20.438  -0.223  16.648  1.00 17.73    -0.217 NA
HETATM    2  S1  BTN A 300      23.160   1.583  16.071  1.00 16.59    -0.137 SA
HETATM    3  C2  BTN A 300      22.338   1.616  14.426  1.00 17.74     0.072 C 
HETATM    4  N2  BTN A 300      21.112  -0.547  14.595  1.00 17.92    -0.217 NA
HETATM    5  C3  BTN A 300      20.795  -1.157  15.759  1.00 17.95     0.360 A 
HETATM    6  O3  BTN A 300      20.849  -2.397  15.907  1.00 17.93    -0.243 OA
HETATM    7  C4  BTN A 300      20.985   0.907  14.675  1.00 17.65     0.141 A 
HETATM    8  C5  BTN A 300      20.513   1.134  16.108  1.00 17.47     0.142 A 
HETATM    9  C6  BTN A 300      21.544   1.997  16.826  1.00 17.06     0.084 C 
ENDROOT
BRANCH   3  10
HETATM   10  C7  BTN A 300      22.998   1.049  13.235  1.00 18.33     0.013 C 
BRANCH  10  11
HETATM   11  C8  BTN A 300      24.469   0.640  13.198  1.00 19.24     0.002 C 
BRANCH  11  12
HETATM   12  C9  BTN A 300      25.220   1.106  12.017  1.00 20.09     0.011 C 
BRANCH  12  13
HETATM   13  C10 BTN A 300      26.619   0.416  11.863  1.00 20.77     0.098 C 
BRANCH  13  14
HETATM   14  C11 BTN A 300      26.593  -0.977  12.382  1.00 21.57     0.185 C 
HETATM   15  O11 BTN A 300      27.285  -1.403  13.317  1.00 21.65    -0.647 OA
HETATM   16  O12 BTN A 300      26.194  -1.864  11.491  1.00 22.67    -0.647 OA
ENDBRANCH  13  14
ENDBRANCH  12  13
ENDBRANCH  11  12
ENDBRANCH  10  11
ENDBRANCH   3  10
TORSDOF 5
ENDMDL
MODEL 9
REMARK VINA RESULT:    -3.386      3.226      5.539
REMARK INTER + INTRA:          -4.865
REMARK INTER:                  -4.510
REMARK INTRA:                  -0.356
REMARK UNBOUND:                -0.490
REMARK  5 active torsions:
REMARK  status: ('A' for Active; 'I' for Inactive)
REMARK    1  A    between atoms: C2_3  and  C7_10 
REMARK    2  A    between atoms: C7_10  and  C8_11 
REMARK    3  A    between atoms: C8_11  and  C9_12 
REMARK    4  A    between atoms: C9_12  and  C10_13 
REMARK    5  A    between atoms: C10_13  and  C11_14 
ROOT
HETATM    1  N1  BTN A 300      27.837   0.822  12.065  1.00 17.73    -0.217 NA
HETATM    2  S1  BTN A 300      25.441  -0.631  13.840  1.00 16.59    -0.137 SA
HETATM    3  C2  BTN A 300      24.511   0.707  12.986  1.00 17.74     0.072 C 
HETATM    4  N2  BTN A 300      26.386   2.324  12.706  1.00 17.92    -0.217 NA
HETATM    5  C3  BTN A 300      27.694   1.985  12.711  1.00 17.95     0.360 A 
HETATM    6  O3  BTN A 300      28.572   2.694  13.249  1.00 17.93    -0.243 OA
HETATM    7  C4  BTN A 300      25.555   1.330  12.029  1.00 17.65     0.141 A 
HETATM    8  C5  BTN A 300      26.568   0.282  11.580  1.00 17.47     0.142 A 
HETATM    9  C6  BTN A 300      26.209  -1.049  12.230  1.00 17.06     0.084 C 
ENDROOT
BRANCH   3  10
HETATM   10  C7  BTN A 300      23.827   1.765  13.753  1.00 18.33     0.013 C 
BRANCH  10  11
HETATM   11  C8  BTN A 300      22.315   1.978  13.737  1.00 19.24     0.002 C 
BRANCH  11  12
HETATM   12  C9  BTN A 300      21.627   1.685  15.008  1.00 20.09     0.011 C 
BRANCH  12  13
HETATM   13  C10 BTN A 300      20.459   0.650  14.854  1.00 20.77     0.098 C 
BRANCH  13  14
HETATM   14  C11 BTN A 300      20.695  -0.261  13.703  1.00 21.57     0.185 C 
HETATM   15  O11 BTN A 300      19.958  -0.365  12.713  1.00 21.65    -0.647 OA
HETATM   16  O12 BTN A 300      21.428  -1.315  14.007  1.00 22.67    -0.647 OA
ENDBRANCH  13  14
ENDBRANCH  12  13
ENDBRANCH  11  12
ENDBRANCH  10  11
ENDBRANCH   3  10
TORSDOF 5
ENDMDL
