MODEL 1
REMARK VINA RESULT:    -4.071      0.000      0.000
REMARK INTER + INTRA:          -5.444
REMARK INTER:                  -5.261
REMARK INTRA:                  -0.183
REMARK UNBOUND:                -0.183
REMARK  5 active torsions:
REMARK  status: ('A' for Active; 'I' for Inactive)
REMARK    1  A    between atoms: C2_3  and  C7_10 
REMARK    2  A    between atoms: C7_10  and  C8_11 
REMARK    3  A    between atoms: C8_11  and  C9_12 
REMARK    4  A    between atoms: C9_12  and  C10_13 
REMARK    5  A    between atoms: C10_13  and  C11_14 
ROOT
HETATM    1  N1  BTN A 300       8.234  -7.240  -5.733  1.00 17.73    -0.217 NA
HETATM    2  S1  BTN A 300       8.943  -7.188  -8.973  1.00 16.59    -0.137 SA
HETATM    3  C2  BTN A 300       9.465  -5.503  -8.451  1.00 17.74     0.072 C 
HETATM    4  N2  BTN A 300       7.913  -5.229  -6.521  1.00 17.92    -0.217 NA
HETATM    5  C3  BTN A 300       7.339  -6.253  -5.850  1.00 17.95     0.360 A 
HETATM    6  O3  BTN A 300       6.161  -6.211  -5.436  1.00 17.93    -0.243 OA
HETATM    7  C4  BTN A 300       9.290  -5.521  -6.914  1.00 17.65     0.141 A 
HETATM    8  C5  BTN A 300       9.515  -6.925  -6.362  1.00 17.47     0.142 A 
HETATM    9  C6  BTN A 300       9.844  -7.855  -7.524  1.00 17.06     0.084 C 
ENDROOT
BRANCH   3  10
HETATM   10  C7  BTN A 300       8.829  -4.300  -9.022  1.00 18.33     0.013 C 
BRANCH  10  11
HETATM   11  C8  BTN A 300       9.485  -3.421 -10.084  1.00 19.24     0.002 C 
BRANCH  11  12
HETATM   12  C9  BTN A 300       8.561  -2.846 -11.081  1.00 20.09     0.011 C 
BRANCH  12  13
HETATM   13  C10 BTN A 300       8.163  -1.362 -10.770  1.00 20.77     0.098 C 
BRANCH  13  14
HETATM   14  C11 BTN A 300       8.116  -0.545 -12.012  1.00 21.57     0.185 C 
HETATM   15  O11 BTN A 300       7.082  -0.176 -12.585  1.00 21.65    -0.647 OA
HETATM   16  O12 BTN A 300       9.196  -0.662 -12.760  1.00 22.67    -0.647 OA
ENDBRANCH  13  14
ENDBRANCH  12  13
ENDBRANCH  11  12
ENDBRANCH  10  11
ENDBRANCH   3  10
TORSDOF 5
ENDMDL
MODEL 2
REMARK VINA RESULT:    -3.906      5.845      8.161
REMARK INTER + INTRA:          -5.231
REMARK INTER:                  -5.051
REMARK INTRA:                  -0.180
REMARK UNBOUND:                -0.183
REMARK  5 active torsions:
REMARK  status: ('A' for Active; 'I' for Inactive)
REMARK    1  A    between atoms: C2_3  and  C7_10 
REMARK    2  A    between atoms: C7_10  and  C8_11 
REMARK    3  A    between atoms: C8_11  and  C9_12 
REMARK    4  A    between atoms: C9_12  and  C10_13 
REMARK    5  A    between atoms: C10_13  and  C11_14 
ROOT
HETATM    1  N1  BTN A 300       8.768  -2.150 -12.683  1.00 17.73    -0.217 NA
HETATM    2  S1  BTN A 300       6.102  -1.395 -14.506  1.00 16.59    -0.137 SA
HETATM    3  C2  BTN A 300       6.982   0.219 -14.448  1.00 17.74     0.072 C 
HETATM    4  N2  BTN A 300       8.161  -0.092 -12.276  1.00 17.92    -0.217 NA
HETATM    5  C3  BTN A 300       8.425  -1.294 -11.715  1.00 17.95     0.360 A 
HETATM    6  O3  BTN A 300       8.343  -1.496 -10.485  1.00 17.93    -0.243 OA
HETATM    7  C4  BTN A 300       8.311  -0.110 -13.729  1.00 17.65     0.141 A 
HETATM    8  C5  BTN A 300       8.738  -1.546 -14.014  1.00 17.47     0.142 A 
HETATM    9  C6  BTN A 300       7.699  -2.187 -14.927  1.00 17.06     0.084 C 
ENDROOT
BRANCH   3  10
HETATM   10  C7  BTN A 300       6.353   1.406 -13.838  1.00 18.33     0.013 C 
BRANCH  10  11
HETATM   11  C8  BTN A 300       5.449   2.371 -14.602  1.00 19.24     0.002 C 
BRANCH  11  12
HETATM   12  C9  BTN A 300       4.613   3.247 -13.760  1.00 20.09     0.011 C 
BRANCH  12  13
HETATM   13  C10 BTN A 300       3.083   2.914 -13.851  1.00 20.77     0.098 C 
BRANCH  13  14
HETATM   14  C11 BTN A 300       2.323   3.566 -12.751  1.00 21.57     0.185 C 
HETATM   15  O11 BTN A 300       2.772   3.817 -11.625  1.00 21.65    -0.647 OA
HETATM   16  O12 BTN A 300       1.018   3.401 -12.843  1.00 22.67    -0.647 OA
ENDBRANCH  13  14
ENDBRANCH  12  13
ENDBRANCH  11  12
ENDBRANCH  10  11
ENDBRANCH   3  10
TORSDOF 5
ENDMDL
MODEL 3
REMARK VINA RESULT:    -3.855      1.289      1.565
REMARK INTER + INTRA:          -5.164
REMARK INTER:                  -4.904
REMARK INTRA:                  -0.261
REMARK UNBOUND:                -0.183
REMARK  5 active torsions:
REMARK  status: ('A' for Active; 'I' for Inactive)
REMARK    1  A    between atoms: C2_3  and  C7_10 
REMARK    2  A    between atoms: C7_10  and  C8_11 
REMARK    3  A    between atoms: C8_11  and  C9_12 
REMARK    4  A    between atoms: C9_12  and  C10_13 
REMARK    5  A    between atoms: C10_13  and  C11_14 
ROOT
HETATM    1  N1  BTN A 300       6.673  -6.955  -6.013  1.00 17.73    -0.217 NA
HETATM    2  S1  BTN A 300       9.450  -7.138  -7.818  1.00 16.59    -0.137 SA
HETATM    3  C2  BTN A 300       9.486  -5.386  -7.257  1.00 17.74     0.072 C 
HETATM    4  N2  BTN A 300       7.032  -5.041  -7.001  1.00 17.92    -0.217 NA
HETATM    5  C3  BTN A 300       6.135  -6.036  -6.822  1.00 17.95     0.360 A 
HETATM    6  O3  BTN A 300       5.004  -6.028  -7.355  1.00 17.93    -0.243 OA
HETATM    7  C4  BTN A 300       8.285  -5.284  -6.288  1.00 17.65     0.141 A 
HETATM    8  C5  BTN A 300       8.033  -6.619  -5.596  1.00 17.47     0.142 A 
HETATM    9  C6  BTN A 300       9.066  -7.624  -6.095  1.00 17.06     0.084 C 
ENDROOT
BRANCH   3  10
HETATM   10  C7  BTN A 300       9.454  -4.276  -8.228  1.00 18.33     0.013 C 
BRANCH  10  11
HETATM   11  C8  BTN A 300       9.200  -4.467  -9.722  1.00 19.24     0.002 C 
BRANCH  11  12
HETATM   12  C9  BTN A 300       8.107  -3.649 -10.282  1.00 20.09     0.011 C 
BRANCH  12  13
HETATM   13  C10 BTN A 300       8.552  -2.190 -10.646  1.00 20.77     0.098 C 
BRANCH  13  14
HETATM   14  C11 BTN A 300       8.603  -1.994 -12.119  1.00 21.57     0.185 C 
HETATM   15  O11 BTN A 300       8.922  -2.861 -12.943  1.00 21.65    -0.647 OA
HETATM   16  O12 BTN A 300       8.796  -0.739 -12.477  1.00 22.67    -0.647 OA
ENDBRANCH  13  14
ENDBRANCH  12  13
ENDBRANCH  11  12
ENDBRANCH  10  11
ENDBRANCH   3  10
TORSDOF 5
ENDMDL
MODEL 4
REMARK VINA RESULT:    -3.759      2.840      6.607
REMARK INTER + INTRA:          -5.041
REMARK INTER:                  -4.680
REMARK INTRA:                  -0.360
REMARK UNBOUND:                -0.183
REMARK  5 active torsions:
REMARK  status: ('A' for Active; 'I' for Inactive)
REMARK    1  A    between atoms: C2_3  and  C7_10 
REMARK    2  A    between atoms: C7_10  and  C8_11 
REMARK    3  A    between atoms: C8_11  and  C9_12 
REMARK    4  A    between atoms: C9_12  and  C10_13 
REMARK    5  A    between atoms: C10_13  and  C11_14 
ROOT
HETATM    1  N1  BTN A 300       7.004  -1.393 -12.443  1.00 17.73    -0.217 NA
HETATM    2  S1  BTN A 300       7.305  -4.658 -11.935  1.00 16.59    -0.137 SA
HETATM    3  C2  BTN A 300       7.622  -3.989 -10.251  1.00 17.74     0.072 C 
HETATM    4  N2  BTN A 300       8.519  -1.761 -10.912  1.00 17.92    -0.217 NA
HETATM    5  C3  BTN A 300       8.276  -1.161 -12.099  1.00 17.95     0.360 A 
HETATM    6  O3  BTN A 300       9.146  -0.509 -12.715  1.00 17.93    -0.243 OA
HETATM    7  C4  BTN A 300       7.351  -2.473 -10.398  1.00 17.65     0.141 A 
HETATM    8  C5  BTN A 300       6.292  -2.215 -11.465  1.00 17.47     0.142 A 
HETATM    9  C6  BTN A 300       5.846  -3.556 -12.038  1.00 17.06     0.084 C 
ENDROOT
BRANCH   3  10
HETATM   10  C7  BTN A 300       8.914  -4.212  -9.575  1.00 18.33     0.013 C 
BRANCH  10  11
HETATM   11  C8  BTN A 300       9.450  -5.595  -9.211  1.00 19.24     0.002 C 
BRANCH  11  12
HETATM   12  C9  BTN A 300       9.834  -5.766  -7.797  1.00 20.09     0.011 C 
BRANCH  12  13
HETATM   13  C10 BTN A 300       8.961  -4.914  -6.812  1.00 20.77     0.098 C 
BRANCH  13  14
HETATM   14  C11 BTN A 300       7.704  -5.623  -6.455  1.00 21.57     0.185 C 
HETATM   15  O11 BTN A 300       6.597  -5.415  -6.970  1.00 21.65    -0.647 OA
HETATM   16  O12 BTN A 300       7.703  -6.109  -5.228  1.00 22.67    -0.647 OA
ENDBRANCH  13  14
ENDBRANCH  12  13
ENDBRANCH  11  12
ENDBRANCH  10  11
ENDBRANCH   3  10
TORSDOF 5
ENDMDL
MODEL 5
REMARK VINA RESULT:    -3.755      3.631      4.450
REMARK INTER + INTRA:          -5.036
REMARK INTER:                  -4.531
REMARK INTRA:                  -0.505
REMARK UNBOUND:                -0.183
REMARK  5 active torsions:
REMARK  status: ('A' for Active; 'I' for Inactive)
REMARK    1  A    between atoms: C2_3  and  C7_10 
REMARK    2  A    between atoms: C7_10  and  C8_11 
REMARK    3  A    between atoms: C8_11  and  C9_12 
REMARK    4  A    between atoms: C9_12  and  C10_13 
REMARK    5  A    between atoms: C10_13  and  C11_14 
ROOT
HETATM    1  N1  BTN A 300       9.188  -6.585 -11.417  1.00 17.73    -0.217 NA
HETATM    2  S1  BTN A 300       9.073  -4.441  -8.889  1.00 16.59    -0.137 SA
HETATM    3  C2  BTN A 300       8.205  -3.502 -10.212  1.00 17.74     0.072 C 
HETATM    4  N2  BTN A 300       9.322  -4.544 -12.181  1.00 17.92    -0.217 NA
HETATM    5  C3  BTN A 300       9.921  -5.755 -12.168  1.00 17.95     0.360 A 
HETATM    6  O3  BTN A 300      10.984  -5.989 -12.782  1.00 17.93    -0.243 OA
HETATM    7  C4  BTN A 300       8.102  -4.515 -11.377  1.00 17.65     0.141 A 
HETATM    8  C5  BTN A 300       8.007  -5.942 -10.845  1.00 17.47     0.142 A 
HETATM    9  C6  BTN A 300       8.044  -5.893  -9.322  1.00 17.06     0.084 C 
ENDROOT
BRANCH   3  10
HETATM   10  C7  BTN A 300       8.733  -2.215 -10.703  1.00 18.33     0.013 C 
BRANCH  10  11
HETATM   11  C8  BTN A 300       7.872  -0.971 -10.910  1.00 19.24     0.002 C 
BRANCH  11  12
HETATM   12  C9  BTN A 300       8.041  -0.301 -12.213  1.00 20.09     0.011 C 
BRANCH  12  13
HETATM   13  C10 BTN A 300       9.107  -0.994 -13.130  1.00 20.77     0.098 C 
BRANCH  13  14
HETATM   14  C11 BTN A 300       8.460  -1.738 -14.243  1.00 21.57     0.185 C 
HETATM   15  O11 BTN A 300       7.278  -2.107 -14.261  1.00 21.65    -0.647 OA
HETATM   16  O12 BTN A 300       9.308  -2.435 -14.974  1.00 22.67    -0.647 OA
ENDBRANCH  13  14
ENDBRANCH  12  13
ENDBRANCH  11  12
ENDBRANCH  10  11
ENDBRANCH   3  10
TORSDOF 5
ENDMDL
MODEL 6
REMARK VINA RESULT:    -3.728      1.880      2.404
REMARK INTER + INTRA:          -5.001
REMARK INTER:                  -4.709
REMARK INTRA:                  -0.292
REMARK UNBOUND:                -0.183
REMARK  5 active torsions:
REMARK  status: ('A' for Active; 'I' for Inactive)
REMARK    1  A    between atoms: C2_3  and  C7_10 
REMARK    2  A    between atoms: C7_10  and  C8_11 
REMARK    3  A    between atoms: C8_11  and  C9_12 
REMARK    4  A    between atoms: C9_12  and  C10_13 
REMARK    5  A    between atoms: C10_13  and  C11_14 
ROOT
HETATM    1  N1  BTN A 300       9.260  -6.460  -7.779  1.00 17.73    -0.217 NA
HETATM    2  S1  BTN A 300       6.958  -5.989 -10.120  1.00 16.59    -0.137 SA
HETATM    3  C2  BTN A 300       8.161  -4.653 -10.508  1.00 17.74     0.072 C 
HETATM    4  N2  BTN A 300       9.088  -4.327  -8.218  1.00 17.92    -0.217 NA
HETATM    5  C3  BTN A 300       9.044  -5.256  -7.237  1.00 17.95     0.360 A 
HETATM    6  O3  BTN A 300       8.833  -4.963  -6.041  1.00 17.93    -0.243 OA
HETATM    7  C4  BTN A 300       9.333  -4.916  -9.534  1.00 17.65     0.141 A 
HETATM    8  C5  BTN A 300       9.456  -6.405  -9.226  1.00 17.47     0.142 A 
HETATM    9  C6  BTN A 300       8.370  -7.148  -9.995  1.00 17.06     0.084 C 
ENDROOT
BRANCH   3  10
HETATM   10  C7  BTN A 300       7.764  -3.233 -10.456  1.00 18.33     0.013 C 
BRANCH  10  11
HETATM   11  C8  BTN A 300       8.677  -2.084 -10.878  1.00 19.24     0.002 C 
BRANCH  11  12
HETATM   12  C9  BTN A 300       7.981  -0.866 -11.338  1.00 20.09     0.011 C 
BRANCH  12  13
HETATM   13  C10 BTN A 300       8.523  -0.325 -12.706  1.00 20.77     0.098 C 
BRANCH  13  14
HETATM   14  C11 BTN A 300       8.155  -1.231 -13.827  1.00 21.57     0.185 C 
HETATM   15  O11 BTN A 300       7.029  -1.709 -14.018  1.00 21.65    -0.647 OA
HETATM   16  O12 BTN A 300       9.176  -1.913 -14.310  1.00 22.67    -0.647 OA
ENDBRANCH  13  14
ENDBRANCH  12  13
ENDBRANCH  11  12
ENDBRANCH  10  11
ENDBRANCH   3  10
TORSDOF 5
ENDMDL
MODEL 7
REMARK VINA RESULT:    -3.603      2.491      2.990
REMARK INTER + INTRA:          -4.839
REMARK INTER:                  -4.498
REMARK INTRA:                  -0.342
REMARK UNBOUND:                -0.183
REMARK  5 active torsions:
REMARK  status: ('A' for Active; 'I' for Inactive)
REMARK    1  A    between atoms: C2_3  and  C7_10 
REMARK    2  A    between atoms: C7_10  and  C8_11 
REMARK    3  A    between atoms: C8_11  and  C9_12 
REMARK    4  A    between atoms: C9_12  and  C10_13 
REMARK    5  A    between atoms: C10_13  and  C11_14 
ROOT
HETATM    1  N1  BTN A 300       8.350  -6.538  -7.961  1.00 17.73    -0.217 NA
HETATM    2  S1  BTN A 300       5.159  -5.631  -7.937  1.00 16.59    -0.137 SA
HETATM    3  C2  BTN A 300       5.749  -4.873  -9.506  1.00 17.74     0.072 C 
HETATM    4  N2  BTN A 300       8.141  -4.567  -8.879  1.00 17.92    -0.217 NA
HETATM    5  C3  BTN A 300       8.774  -5.270  -7.914  1.00 17.95     0.360 A 
HETATM    6  O3  BTN A 300       9.609  -4.753  -7.141  1.00 17.93    -0.243 OA
HETATM    7  C4  BTN A 300       7.201  -5.387  -9.642  1.00 17.65     0.141 A 
HETATM    8  C5  BTN A 300       7.349  -6.764  -9.002  1.00 17.47     0.142 A 
HETATM    9  C6  BTN A 300       5.996  -7.182  -8.436  1.00 17.06     0.084 C 
ENDROOT
BRANCH   3  10
HETATM   10  C7  BTN A 300       5.705  -3.413  -9.708  1.00 18.33     0.013 C 
BRANCH  10  11
HETATM   11  C8  BTN A 300       5.974  -2.737 -11.051  1.00 19.24     0.002 C 
BRANCH  11  12
HETATM   12  C9  BTN A 300       6.945  -1.626 -11.010  1.00 20.09     0.011 C 
BRANCH  12  13
HETATM   13  C10 BTN A 300       8.338  -2.000 -11.623  1.00 20.77     0.098 C 
BRANCH  13  14
HETATM   14  C11 BTN A 300       8.792  -0.972 -12.597  1.00 21.57     0.185 C 
HETATM   15  O11 BTN A 300       8.417   0.209 -12.615  1.00 21.65    -0.647 OA
HETATM   16  O12 BTN A 300       9.206  -1.477 -13.743  1.00 22.67    -0.647 OA
ENDBRANCH  13  14
ENDBRANCH  12  13
ENDBRANCH  11  12
ENDBRANCH  10  11
ENDBRANCH   3  10
TORSDOF 5
ENDMDL
MODEL 8
REMARK VINA RESULT:    -3.540      5.201      7.069
REMARK INTER + INTRA:          -4.758
REMARK INTER:                  -4.456
REMARK INTRA:                  -0.302
REMARK UNBOUND:                -0.183
REMARK  5 active torsions:
REMARK  status: ('A' for Active; 'I' for Inactive)
REMARK    1  A    between atoms: C2_3  and  C7_10 
REMARK    2  A    between atoms: C7_10  and  C8_11 
REMARK    3  A    between atoms: C8_11  and  C9_12 
REMARK    4  A    between atoms: C9_12  and  C10_13 
REMARK    5  A    between atoms: C10_13  and  C11_14 
ROOT
HETATM    1  N1  BTN A 300       8.736  -3.427 -12.157  1.00 17.73    -0.217 NA
HETATM    2  S1  BTN A 300       6.458  -2.351 -14.314  1.00 16.59    -0.137 SA
HETATM    3  C2  BTN A 300       7.832  -1.163 -14.602  1.00 17.74     0.072 C 
HETATM    4  N2  BTN A 300       8.865  -1.254 -12.336  1.00 17.92    -0.217 NA
HETATM    5  C3  BTN A 300       8.715  -2.280 -11.469  1.00 17.95     0.360 A 
HETATM    6  O3  BTN A 300       8.586  -2.109 -10.238  1.00 17.93    -0.243 OA
HETATM    7  C4  BTN A 300       8.981  -1.707 -13.721  1.00 17.65     0.141 A 
HETATM    8  C5  BTN A 300       8.894  -3.224 -13.596  1.00 17.47     0.142 A 
HETATM    9  C6  BTN A 300       7.687  -3.707 -14.394  1.00 17.06     0.084 C 
ENDROOT
BRANCH   3  10
HETATM   10  C7  BTN A 300       7.649   0.282 -14.365  1.00 18.33     0.013 C 
BRANCH  10  11
HETATM   11  C8  BTN A 300       6.346   0.898 -13.860  1.00 19.24     0.002 C 
BRANCH  11  12
HETATM   12  C9  BTN A 300       5.355   1.215 -14.906  1.00 20.09     0.011 C 
BRANCH  12  13
HETATM   13  C10 BTN A 300       5.303   2.740 -15.265  1.00 20.77     0.098 C 
BRANCH  13  14
HETATM   14  C11 BTN A 300       4.668   3.529 -14.175  1.00 21.57     0.185 C 
HETATM   15  O11 BTN A 300       5.278   4.217 -13.345  1.00 21.65    -0.647 OA
HETATM   16  O12 BTN A 300       3.490   3.066 -13.807  1.00 22.67    -0.647 OA
ENDBRANCH  13  14
ENDBRANCH  12  13
ENDBRANCH  11  12
ENDBRANCH  10  11
ENDBRANCH   3  10
TORSDOF 5
ENDMDL
MODEL 9
REMARK VINA RESULT:    -3.504     14.018     17.598
REMARK INTER + INTRA:          -4.712
REMARK INTER:                  -4.399
REMARK INTRA:                  -0.313
REMARK UNBOUND:                -0.183
REMARK  5 active torsions:
REMARK  status: ('A' for Active; 'I' for Inactive)
REMARK    1  A    between atoms: C2_3  and  C7_10 
REMARK    2  A    between atoms: C7_10  and  C8_11 
REMARK    3  A    between atoms: C8_11  and  C9_12 
REMARK    4  A    between atoms: C9_12  and  C10_13 
REMARK    5  A    between atoms: C10_13  and  C11_14 
ROOT
HETATM    1  N1  BTN A 300      -0.721   8.410 -19.218  1.00 17.73    -0.217 NA
HETATM    2  S1  BTN A 300      -2.239   5.470 -18.972  1.00 16.59    -0.137 SA
HETATM    3  C2  BTN A 300      -3.023   6.409 -17.598  1.00 17.74     0.072 C 
HETATM    4  N2  BTN A 300      -1.147   7.978 -17.120  1.00 17.92    -0.217 NA
HETATM    5  C3  BTN A 300      -0.174   8.298 -18.002  1.00 17.95     0.360 A 
HETATM    6  O3  BTN A 300       1.019   8.451 -17.664  1.00 17.93    -0.243 OA
HETATM    7  C4  BTN A 300      -2.455   7.840 -17.757  1.00 17.65     0.141 A 
HETATM    8  C5  BTN A 300      -2.158   8.144 -19.222  1.00 17.47     0.142 A 
HETATM    9  C6  BTN A 300      -2.528   6.920 -20.054  1.00 17.06     0.084 C 
ENDROOT
BRANCH   3  10
HETATM   10  C7  BTN A 300      -2.890   5.962 -16.199  1.00 18.33     0.013 C 
BRANCH  10  11
HETATM   11  C8  BTN A 300      -2.037   4.770 -15.770  1.00 19.24     0.002 C 
BRANCH  11  12
HETATM   12  C9  BTN A 300      -0.796   5.114 -15.051  1.00 20.09     0.011 C 
BRANCH  12  13
HETATM   13  C10 BTN A 300       0.432   4.239 -15.483  1.00 20.77     0.098 C 
BRANCH  13  14
HETATM   14  C11 BTN A 300       1.067   3.583 -14.309  1.00 21.57     0.185 C 
HETATM   15  O11 BTN A 300       1.512   2.428 -14.292  1.00 21.65    -0.647 OA
HETATM   16  O12 BTN A 300       0.678   4.084 -13.152  1.00 22.67    -0.647 OA
ENDBRANCH  13  14
ENDBRANCH  12  13
ENDBRANCH  11  12
ENDBRANCH  10  11
ENDBRANCH   3  10
TORSDOF 5
ENDMDL
