MODEL 1
REMARK VINA RESULT:    -3.756      0.000      0.000
REMARK INTER + INTRA:          -5.089
REMARK INTER:                  -4.854
REMARK INTRA:                  -0.236
REMARK UNBOUND:                -0.236
REMARK  5 active torsions:
REMARK  status: ('A' for Active; 'I' for Inactive)
REMARK    1  A    between atoms: C2_3  and  C7_10 
REMARK    2  A    between atoms: C7_10  and  C8_11 
REMARK    3  A    between atoms: C8_11  and  C9_12 
REMARK    4  A    between atoms: C9_12  and  C10_13 
REMARK    5  A    between atoms: C10_13  and  C11_14 
ROOT
HETATM    1  N1  BTN A 300       8.633  15.149 -13.256  1.00 17.73    -0.217 NA
HETATM    2  S1  BTN A 300       5.364  14.584 -13.229  1.00 16.59    -0.137 SA
HETATM    3  C2  BTN A 300       5.789  14.391 -11.450  1.00 17.74     0.072 C 
HETATM    4  N2  BTN A 300       8.158  13.667 -11.723  1.00 17.92    -0.217 NA
HETATM    5  C3  BTN A 300       8.911  13.916 -12.817  1.00 17.95     0.360 A 
HETATM    6  O3  BTN A 300       9.718  13.084 -13.285  1.00 17.93    -0.243 OA
HETATM    7  C4  BTN A 300       7.283  14.787 -11.381  1.00 17.65     0.141 A 
HETATM    8  C5  BTN A 300       7.617  15.823 -12.450  1.00 17.47     0.142 A 
HETATM    9  C6  BTN A 300       6.348  16.129 -13.239  1.00 17.06     0.084 C 
ENDROOT
BRANCH   3  10
HETATM   10  C7  BTN A 300       5.569  13.111 -10.751  1.00 18.33     0.013 C 
BRANCH  10  11
HETATM   11  C8  BTN A 300       4.272  12.310 -10.841  1.00 19.24     0.002 C 
BRANCH  11  12
HETATM   12  C9  BTN A 300       3.497  12.227  -9.588  1.00 20.09     0.011 C 
BRANCH  12  13
HETATM   13  C10 BTN A 300       4.237  12.866  -8.362  1.00 20.77     0.098 C 
BRANCH  13  14
HETATM   14  C11 BTN A 300       3.807  12.236  -7.085  1.00 21.57     0.185 C 
HETATM   15  O11 BTN A 300       4.355  11.263  -6.550  1.00 21.65    -0.647 OA
HETATM   16  O12 BTN A 300       2.530  12.419  -6.811  1.00 22.67    -0.647 OA
ENDBRANCH  13  14
ENDBRANCH  12  13
ENDBRANCH  11  12
ENDBRANCH  10  11
ENDBRANCH   3  10
TORSDOF 5
ENDMDL
MODEL 2
REMARK VINA RESULT:    -3.737      2.593      3.182
REMARK INTER + INTRA:          -5.065
REMARK INTER:                  -4.645
REMARK INTRA:                  -0.421
REMARK UNBOUND:                -0.236
REMARK  5 active torsions:
REMARK  status: ('A' for Active; 'I' for Inactive)
REMARK    1  A    between atoms: C2_3  and  C7_10 
REMARK    2  A    between atoms: C7_10  and  C8_11 
REMARK    3  A    between atoms: C8_11  and  C9_12 
REMARK    4  A    between atoms: C9_12  and  C10_13 
REMARK    5  A    between atoms: C10_13  and  C11_14 
ROOT
HETATM    1  N1  BTN A 300       7.763  15.527 -14.322  1.00 17.73    -0.217 NA
HETATM    2  S1  BTN A 300       8.808  15.981 -11.207  1.00 16.59    -0.137 SA
HETATM    3  C2  BTN A 300       8.477  14.171 -11.228  1.00 17.74     0.072 C 
HETATM    4  N2  BTN A 300       6.716  14.149 -12.990  1.00 17.92    -0.217 NA
HETATM    5  C3  BTN A 300       6.555  15.114 -13.922  1.00 17.95     0.360 A 
HETATM    6  O3  BTN A 300       5.430  15.505 -14.300  1.00 17.93    -0.243 OA
HETATM    7  C4  BTN A 300       8.123  13.877 -12.705  1.00 17.65     0.141 A 
HETATM    8  C5  BTN A 300       8.855  14.837 -13.637  1.00 17.47     0.142 A 
HETATM    9  C6  BTN A 300       9.705  15.779 -12.791  1.00 17.06     0.084 C 
ENDROOT
BRANCH   3  10
HETATM   10  C7  BTN A 300       7.468  13.572 -10.333  1.00 18.33     0.013 C 
BRANCH  10  11
HETATM   11  C8  BTN A 300       6.751  14.347  -9.229  1.00 19.24     0.002 C 
BRANCH  11  12
HETATM   12  C9  BTN A 300       5.291  14.143  -9.167  1.00 20.09     0.011 C 
BRANCH  12  13
HETATM   13  C10 BTN A 300       4.857  12.675  -9.506  1.00 20.77     0.098 C 
BRANCH  13  14
HETATM   14  C11 BTN A 300       3.791  12.653 -10.543  1.00 21.57     0.185 C 
HETATM   15  O11 BTN A 300       3.720  13.425 -11.509  1.00 21.65    -0.647 OA
HETATM   16  O12 BTN A 300       2.657  12.129 -10.121  1.00 22.67    -0.647 OA
ENDBRANCH  13  14
ENDBRANCH  12  13
ENDBRANCH  11  12
ENDBRANCH  10  11
ENDBRANCH   3  10
TORSDOF 5
ENDMDL
MODEL 3
REMARK VINA RESULT:    -3.696     10.466     11.035
REMARK INTER + INTRA:          -5.012
REMARK INTER:                  -4.587
REMARK INTRA:                  -0.424
REMARK UNBOUND:                -0.236
REMARK  5 active torsions:
REMARK  status: ('A' for Active; 'I' for Inactive)
REMARK    1  A    between atoms: C2_3  and  C7_10 
REMARK    2  A    between atoms: C7_10  and  C8_11 
REMARK    3  A    between atoms: C8_11  and  C9_12 
REMARK    4  A    between atoms: C9_12  and  C10_13 
REMARK    5  A    between atoms: C10_13  and  C11_14 
ROOT
HETATM    1  N1  BTN A 300       2.801   6.401 -17.916  1.00 17.73    -0.217 NA
HETATM    2  S1  BTN A 300       5.533   5.898 -16.103  1.00 16.59    -0.137 SA
HETATM    3  C2  BTN A 300       4.994   4.173 -16.450  1.00 17.74     0.072 C 
HETATM    4  N2  BTN A 300       2.553   4.604 -16.700  1.00 17.92    -0.217 NA
HETATM    5  C3  BTN A 300       2.016   5.805 -17.012  1.00 17.95     0.360 A 
HETATM    6  O3  BTN A 300       0.956   6.223 -16.499  1.00 17.93    -0.243 OA
HETATM    7  C4  BTN A 300       3.800   4.347 -17.418  1.00 17.65     0.141 A 
HETATM    8  C5  BTN A 300       3.972   5.600 -18.269  1.00 17.47     0.142 A 
HETATM    9  C6  BTN A 300       5.283   6.274 -17.878  1.00 17.06     0.084 C 
ENDROOT
BRANCH   3  10
HETATM   10  C7  BTN A 300       4.631   3.255 -15.353  1.00 18.33     0.013 C 
BRANCH  10  11
HETATM   11  C8  BTN A 300       4.967   3.516 -13.886  1.00 19.24     0.002 C 
BRANCH  11  12
HETATM   12  C9  BTN A 300       3.807   3.567 -12.977  1.00 20.09     0.011 C 
BRANCH  12  13
HETATM   13  C10 BTN A 300       2.508   2.945 -13.597  1.00 20.77     0.098 C 
BRANCH  13  14
HETATM   14  C11 BTN A 300       1.287   3.469 -12.930  1.00 21.57     0.185 C 
HETATM   15  O11 BTN A 300       0.741   2.961 -11.941  1.00 21.65    -0.647 OA
HETATM   16  O12 BTN A 300       0.519   4.187 -13.726  1.00 22.67    -0.647 OA
ENDBRANCH  13  14
ENDBRANCH  12  13
ENDBRANCH  11  12
ENDBRANCH  10  11
ENDBRANCH   3  10
TORSDOF 5
ENDMDL
MODEL 4
REMARK VINA RESULT:    -3.664     10.642     11.172
REMARK INTER + INTRA:          -4.971
REMARK INTER:                  -4.573
REMARK INTRA:                  -0.398
REMARK UNBOUND:                -0.236
REMARK  5 active torsions:
REMARK  status: ('A' for Active; 'I' for Inactive)
REMARK    1  A    between atoms: C2_3  and  C7_10 
REMARK    2  A    between atoms: C7_10  and  C8_11 
REMARK    3  A    between atoms: C8_11  and  C9_12 
REMARK    4  A    between atoms: C9_12  and  C10_13 
REMARK    5  A    between atoms: C10_13  and  C11_14 
ROOT
HETATM    1  N1  BTN A 300       5.792   5.189 -19.342  1.00 17.73    -0.217 NA
HETATM    2  S1  BTN A 300       3.496   5.372 -16.955  1.00 16.59    -0.137 SA
HETATM    3  C2  BTN A 300       5.001   4.938 -15.990  1.00 17.74     0.072 C 
HETATM    4  N2  BTN A 300       6.239   3.728 -17.782  1.00 17.92    -0.217 NA
HETATM    5  C3  BTN A 300       6.023   3.893 -19.106  1.00 17.95     0.360 A 
HETATM    6  O3  BTN A 300       6.052   2.943 -19.918  1.00 17.93    -0.243 OA
HETATM    7  C4  BTN A 300       6.137   4.982 -17.039  1.00 17.65     0.141 A 
HETATM    8  C5  BTN A 300       5.828   6.003 -18.128  1.00 17.47     0.142 A 
HETATM    9  C6  BTN A 300       4.483   6.652 -17.815  1.00 17.06     0.084 C 
ENDROOT
BRANCH   3  10
HETATM   10  C7  BTN A 300       5.072   3.685 -15.215  1.00 18.33     0.013 C 
BRANCH  10  11
HETATM   11  C8  BTN A 300       5.085   3.636 -13.688  1.00 19.24     0.002 C 
BRANCH  11  12
HETATM   12  C9  BTN A 300       3.775   3.382 -13.057  1.00 20.09     0.011 C 
BRANCH  12  13
HETATM   13  C10 BTN A 300       2.736   2.731 -14.034  1.00 20.77     0.098 C 
BRANCH  13  14
HETATM   14  C11 BTN A 300       1.459   3.493 -14.048  1.00 21.57     0.185 C 
HETATM   15  O11 BTN A 300       0.783   3.772 -13.048  1.00 21.65    -0.647 OA
HETATM   16  O12 BTN A 300       0.812   3.417 -15.195  1.00 22.67    -0.647 OA
ENDBRANCH  13  14
ENDBRANCH  12  13
ENDBRANCH  11  12
ENDBRANCH  10  11
ENDBRANCH   3  10
TORSDOF 5
ENDMDL
MODEL 5
REMARK VINA RESULT:    -3.661      1.661      2.398
REMARK INTER + INTRA:          -4.967
REMARK INTER:                  -4.587
REMARK INTRA:                  -0.380
REMARK UNBOUND:                -0.236
REMARK  5 active torsions:
REMARK  status: ('A' for Active; 'I' for Inactive)
REMARK    1  A    between atoms: C2_3  and  C7_10 
REMARK    2  A    between atoms: C7_10  and  C8_11 
REMARK    3  A    between atoms: C8_11  and  C9_12 
REMARK    4  A    between atoms: C9_12  and  C10_13 
REMARK    5  A    between atoms: C10_13  and  C11_14 
ROOT
HETATM    1  N1  BTN A 300       9.726  15.238 -12.698  1.00 17.73    -0.217 NA
HETATM    2  S1  BTN A 300       7.478  16.648 -14.688  1.00 16.59    -0.137 SA
HETATM    3  C2  BTN A 300       6.416  15.983 -13.341  1.00 17.74     0.072 C 
HETATM    4  N2  BTN A 300       7.872  14.085 -12.641  1.00 17.92    -0.217 NA
HETATM    5  C3  BTN A 300       9.203  14.019 -12.869  1.00 17.95     0.360 A 
HETATM    6  O3  BTN A 300       9.781  12.956 -13.181  1.00 17.93    -0.243 OA
HETATM    7  C4  BTN A 300       7.430  15.438 -12.307  1.00 17.65     0.141 A 
HETATM    8  C5  BTN A 300       8.725  16.243 -12.344  1.00 17.47     0.142 A 
HETATM    9  C6  BTN A 300       8.586  17.333 -13.401  1.00 17.06     0.084 C 
ENDROOT
BRANCH   3  10
HETATM   10  C7  BTN A 300       5.379  14.971 -13.620  1.00 18.33     0.013 C 
BRANCH  10  11
HETATM   11  C8  BTN A 300       4.286  14.586 -12.625  1.00 19.24     0.002 C 
BRANCH  11  12
HETATM   12  C9  BTN A 300       4.363  13.204 -12.113  1.00 20.09     0.011 C 
BRANCH  12  13
HETATM   13  C10 BTN A 300       4.968  13.114 -10.669  1.00 20.77     0.098 C 
BRANCH  13  14
HETATM   14  C11 BTN A 300       4.124  12.270  -9.782  1.00 21.57     0.185 C 
HETATM   15  O11 BTN A 300       2.939  11.978  -9.992  1.00 21.65    -0.647 OA
HETATM   16  O12 BTN A 300       4.519  12.270  -8.524  1.00 22.67    -0.647 OA
ENDBRANCH  13  14
ENDBRANCH  12  13
ENDBRANCH  11  12
ENDBRANCH  10  11
ENDBRANCH   3  10
TORSDOF 5
ENDMDL
MODEL 6
REMARK VINA RESULT:    -3.547     11.513     12.511
REMARK INTER + INTRA:          -4.819
REMARK INTER:                  -4.516
REMARK INTRA:                  -0.303
REMARK UNBOUND:                -0.236
REMARK  5 active torsions:
REMARK  status: ('A' for Active; 'I' for Inactive)
REMARK    1  A    between atoms: C2_3  and  C7_10 
REMARK    2  A    between atoms: C7_10  and  C8_11 
REMARK    3  A    between atoms: C8_11  and  C9_12 
REMARK    4  A    between atoms: C9_12  and  C10_13 
REMARK    5  A    between atoms: C10_13  and  C11_14 
ROOT
HETATM    1  N1  BTN A 300       3.470   3.570 -16.125  1.00 17.73    -0.217 NA
HETATM    2  S1  BTN A 300       1.413   3.497 -13.524  1.00 16.59    -0.137 SA
HETATM    3  C2  BTN A 300       0.230   3.565 -14.932  1.00 17.74     0.072 C 
HETATM    4  N2  BTN A 300       1.687   4.751 -16.568  1.00 17.92    -0.217 NA
HETATM    5  C3  BTN A 300       3.038   4.776 -16.512  1.00 17.95     0.360 A 
HETATM    6  O3  BTN A 300       3.706   5.794 -16.791  1.00 17.93    -0.243 OA
HETATM    7  C4  BTN A 300       1.136   3.454 -16.181  1.00 17.65     0.141 A 
HETATM    8  C5  BTN A 300       2.381   2.629 -15.874  1.00 17.47     0.142 A 
HETATM    9  C6  BTN A 300       2.316   2.179 -14.419  1.00 17.06     0.084 C 
ENDROOT
BRANCH   3  10
HETATM   10  C7  BTN A 300      -0.709   4.692 -15.082  1.00 18.33     0.013 C 
BRANCH  10  11
HETATM   11  C8  BTN A 300      -1.984   4.624 -15.920  1.00 19.24     0.002 C 
BRANCH  11  12
HETATM   12  C9  BTN A 300      -2.837   5.827 -15.862  1.00 20.09     0.011 C 
BRANCH  12  13
HETATM   13  C10 BTN A 300      -3.068   6.488 -17.265  1.00 20.77     0.098 C 
BRANCH  13  14
HETATM   14  C11 BTN A 300      -2.447   7.838 -17.333  1.00 21.57     0.185 C 
HETATM   15  O11 BTN A 300      -3.033   8.876 -17.671  1.00 21.65    -0.647 OA
HETATM   16  O12 BTN A 300      -1.142   7.809 -17.519  1.00 22.67    -0.647 OA
ENDBRANCH  13  14
ENDBRANCH  12  13
ENDBRANCH  11  12
ENDBRANCH  10  11
ENDBRANCH   3  10
TORSDOF 5
ENDMDL
MODEL 7
REMARK VINA RESULT:    -3.547     10.655     11.611
REMARK INTER + INTRA:          -4.819
REMARK INTER:                  -4.434
REMARK INTRA:                  -0.385
REMARK UNBOUND:                -0.236
REMARK  5 active torsions:
REMARK  status: ('A' for Active; 'I' for Inactive)
REMARK    1  A    between atoms: C2_3  and  C7_10 
REMARK    2  A    between atoms: C7_10  and  C8_11 
REMARK    3  A    between atoms: C8_11  and  C9_12 
REMARK    4  A    between atoms: C9_12  and  C10_13 
REMARK    5  A    between atoms: C10_13  and  C11_14 
ROOT
HETATM    1  N1  BTN A 300       0.898   8.806 -18.562  1.00 17.73    -0.217 NA
HETATM    2  S1  BTN A 300      -1.688   7.028 -19.637  1.00 16.59    -0.137 SA
HETATM    3  C2  BTN A 300      -2.279   7.582 -17.985  1.00 17.74     0.072 C 
HETATM    4  N2  BTN A 300      -0.063   7.813 -16.870  1.00 17.92    -0.217 NA
HETATM    5  C3  BTN A 300       1.107   7.988 -17.524  1.00 17.95     0.360 A 
HETATM    6  O3  BTN A 300       2.171   7.445 -17.159  1.00 17.93    -0.243 OA
HETATM    7  C4  BTN A 300      -1.167   8.539 -17.497  1.00 17.65     0.141 A 
HETATM    8  C5  BTN A 300      -0.495   9.234 -18.676  1.00 17.47     0.142 A 
HETATM    9  C6  BTN A 300      -1.156   8.749 -19.963  1.00 17.06     0.084 C 
ENDROOT
BRANCH   3  10
HETATM   10  C7  BTN A 300      -2.612   6.606 -16.930  1.00 18.33     0.013 C 
BRANCH  10  11
HETATM   11  C8  BTN A 300      -2.353   5.106 -17.054  1.00 19.24     0.002 C 
BRANCH  11  12
HETATM   12  C9  BTN A 300      -2.049   4.416 -15.786  1.00 20.09     0.011 C 
BRANCH  12  13
HETATM   13  C10 BTN A 300      -1.067   5.219 -14.865  1.00 20.77     0.098 C 
BRANCH  13  14
HETATM   14  C11 BTN A 300       0.190   4.461 -14.625  1.00 21.57     0.185 C 
HETATM   15  O11 BTN A 300       0.606   4.103 -13.515  1.00 21.65    -0.647 OA
HETATM   16  O12 BTN A 300       1.096   4.630 -15.569  1.00 22.67    -0.647 OA
ENDBRANCH  13  14
ENDBRANCH  12  13
ENDBRANCH  11  12
ENDBRANCH  10  11
ENDBRANCH   3  10
TORSDOF 5
ENDMDL
MODEL 8
REMARK VINA RESULT:    -3.455      2.085      2.555
REMARK INTER + INTRA:          -4.700
REMARK INTER:                  -4.237
REMARK INTRA:                  -0.463
REMARK UNBOUND:                -0.236
REMARK  5 active torsions:
REMARK  status: ('A' for Active; 'I' for Inactive)
REMARK    1  A    between atoms: C2_3  and  C7_10 
REMARK    2  A    between atoms: C7_10  and  C8_11 
REMARK    3  A    between atoms: C8_11  and  C9_12 
REMARK    4  A    between atoms: C9_12  and  C10_13 
REMARK    5  A    between atoms: C10_13  and  C11_14 
ROOT
HETATM    1  N1  BTN A 300       7.973  14.998 -12.828  1.00 17.73    -0.217 NA
HETATM    2  S1  BTN A 300       4.792  14.072 -12.673  1.00 16.59    -0.137 SA
HETATM    3  C2  BTN A 300       5.314  13.903 -10.917  1.00 17.74     0.072 C 
HETATM    4  N2  BTN A 300       7.733  13.452 -11.304  1.00 17.92    -0.217 NA
HETATM    5  C3  BTN A 300       8.406  13.798 -12.424  1.00 17.95     0.360 A 
HETATM    6  O3  BTN A 300       9.278  13.067 -12.940  1.00 17.93    -0.243 OA
HETATM    7  C4  BTN A 300       6.756  14.462 -10.904  1.00 17.65     0.141 A 
HETATM    8  C5  BTN A 300       6.925  15.543 -11.967  1.00 17.47     0.142 A 
HETATM    9  C6  BTN A 300       5.597  15.717 -12.696  1.00 17.06     0.084 C 
ENDROOT
BRANCH   3  10
HETATM   10  C7  BTN A 300       5.268  12.597 -10.232  1.00 18.33     0.013 C 
BRANCH  10  11
HETATM   11  C8  BTN A 300       4.181  12.202  -9.235  1.00 19.24     0.002 C 
BRANCH  11  12
HETATM   12  C9  BTN A 300       3.231  13.276  -8.886  1.00 20.09     0.011 C 
BRANCH  12  13
HETATM   13  C10 BTN A 300       1.938  13.269  -9.773  1.00 20.77     0.098 C 
BRANCH  13  14
HETATM   14  C11 BTN A 300       1.647  14.624 -10.312  1.00 21.57     0.185 C 
HETATM   15  O11 BTN A 300       1.200  14.861 -11.443  1.00 21.65    -0.647 OA
HETATM   16  O12 BTN A 300       2.357  15.580  -9.745  1.00 22.67    -0.647 OA
ENDBRANCH  13  14
ENDBRANCH  12  13
ENDBRANCH  11  12
ENDBRANCH  10  11
ENDBRANCH   3  10
TORSDOF 5
ENDMDL
MODEL 9
REMARK VINA RESULT:    -3.420     12.440     13.963
REMARK INTER + INTRA:          -4.656
REMARK INTER:                  -4.304
REMARK INTRA:                  -0.352
REMARK UNBOUND:                -0.236
REMARK  5 active torsions:
REMARK  status: ('A' for Active; 'I' for Inactive)
REMARK    1  A    between atoms: C2_3  and  C7_10 
REMARK    2  A    between atoms: C7_10  and  C8_11 
REMARK    3  A    between atoms: C8_11  and  C9_12 
REMARK    4  A    between atoms: C9_12  and  C10_13 
REMARK    5  A    between atoms: C10_13  and  C11_14 
ROOT
HETATM    1  N1  BTN A 300       8.065  -1.776 -13.734  1.00 17.73    -0.217 NA
HETATM    2  S1  BTN A 300       5.136  -0.566 -14.716  1.00 16.59    -0.137 SA
HETATM    3  C2  BTN A 300       6.198   0.935 -14.777  1.00 17.74     0.072 C 
HETATM    4  N2  BTN A 300       7.847   0.280 -13.028  1.00 17.92    -0.217 NA
HETATM    5  C3  BTN A 300       8.093  -0.994 -12.649  1.00 17.95     0.360 A 
HETATM    6  O3  BTN A 300       8.306  -1.314 -11.459  1.00 17.93    -0.243 OA
HETATM    7  C4  BTN A 300       7.615   0.398 -14.467  1.00 17.65     0.141 A 
HETATM    8  C5  BTN A 300       7.769  -1.037 -14.960  1.00 17.47     0.142 A 
HETATM    9  C6  BTN A 300       6.458  -1.470 -15.606  1.00 17.06     0.084 C 
ENDROOT
BRANCH   3  10
HETATM   10  C7  BTN A 300       5.902   2.110 -13.935  1.00 18.33     0.013 C 
BRANCH  10  11
HETATM   11  C8  BTN A 300       4.618   2.928 -14.047  1.00 19.24     0.002 C 
BRANCH  11  12
HETATM   12  C9  BTN A 300       4.355   3.504 -15.380  1.00 20.09     0.011 C 
BRANCH  12  13
HETATM   13  C10 BTN A 300       5.189   4.801 -15.668  1.00 20.77     0.098 C 
BRANCH  13  14
HETATM   14  C11 BTN A 300       5.901   4.706 -16.971  1.00 21.57     0.185 C 
HETATM   15  O11 BTN A 300       6.336   3.660 -17.471  1.00 21.65    -0.647 OA
HETATM   16  O12 BTN A 300       6.502   5.825 -17.325  1.00 22.67    -0.647 OA
ENDBRANCH  13  14
ENDBRANCH  12  13
ENDBRANCH  11  12
ENDBRANCH  10  11
ENDBRANCH   3  10
TORSDOF 5
ENDMDL
