MODEL 1
REMARK VINA RESULT:      -4.6      0.000      0.000
REMARK  3 active torsions:
REMARK  status: ('A' for Active; 'I' for Inactive)
REMARK    1  A    between atoms: C2_2  and  N1_3 
REMARK    2  A    between atoms: C4_5  and  C12_15 
REMARK    3  A    between atoms: C12_15  and  O3_17 
ROOT
HETATM    1  N1  NDX     1      11.996   5.957  -3.722  1.00  0.00    -0.340 N 
HETATM    2  C3  NDX     1      11.606   7.131  -3.104  1.00  0.00     0.115 A 
HETATM    3  C4  NDX     1      10.678   7.988  -3.557  1.00  0.00     0.104 A 
HETATM    4  C5  NDX     1       9.992   7.629  -4.821  1.00  0.00     0.204 A 
HETATM    5  O1  NDX     1       9.049   8.271  -5.273  1.00  0.00    -0.286 OA
HETATM    6  C6  NDX     1      10.459   6.419  -5.539  1.00  0.00     0.061 A 
HETATM    7  C7  NDX     1      11.449   5.606  -4.978  1.00  0.00     0.144 A 
HETATM    8  N2  NDX     1      11.884   4.494  -5.622  1.00  0.00    -0.235 NA
HETATM    9  C8  NDX     1      11.343   4.175  -6.825  1.00  0.00     0.033 A 
HETATM   10  C9  NDX     1      10.355   4.941  -7.430  1.00  0.00     0.028 A 
HETATM   11  C10 NDX     1       9.906   6.081  -6.776  1.00  0.00     0.021 A 
HETATM   12  C11 NDX     1      11.854   2.937  -7.499  1.00  0.00     0.070 C 
ENDROOT
BRANCH   3  13
HETATM   13  C12 NDX     1      10.423   9.198  -2.767  1.00  0.00     0.181 C 
HETATM   14  O2  NDX     1      11.179  10.151  -2.662  1.00  0.00    -0.646 OA
BRANCH  13  15
HETATM   15  O3  NDX     1       9.214   9.216  -2.187  1.00  0.00    -0.773 OA
HETATM   16  H12 NDX     1       9.125  10.116  -1.813  1.00  0.00     0.167 HD
ENDBRANCH  13  15
ENDBRANCH   3  13
BRANCH   1  17
HETATM   17  C2  NDX     1      13.051   5.083  -3.198  1.00  0.00     0.125 C 
HETATM   18  C1  NDX     1      14.389   5.810  -3.145  1.00  0.00     0.027 C 
ENDBRANCH   1  17
TORSDOF 3
ENDMDL
