MODEL 1
REMARK VINA RESULT:      -2.0      0.000      0.000
REMARK  3 active torsions:
REMARK  status: ('A' for Active; 'I' for Inactive)
REMARK    1  A    between atoms: C2_2  and  N1_3 
REMARK    2  A    between atoms: C4_5  and  C12_15 
REMARK    3  A    between atoms: C12_15  and  O3_17 
ROOT
HETATM    1  N1  NDX     1     -47.738  -1.016  16.639  1.00  0.00    -0.340 N 
HETATM    2  C3  NDX     1     -46.547  -0.315  16.591  1.00  0.00     0.115 A 
HETATM    3  C4  NDX     1     -46.313   0.877  17.162  1.00  0.00     0.104 A 
HETATM    4  C5  NDX     1     -47.424   1.483  17.934  1.00  0.00     0.204 A 
HETATM    5  O1  NDX     1     -47.294   2.509  18.594  1.00  0.00    -0.286 OA
HETATM    6  C6  NDX     1     -48.732   0.786  17.922  1.00  0.00     0.061 A 
HETATM    7  C7  NDX     1     -48.865  -0.448  17.277  1.00  0.00     0.144 A 
HETATM    8  N2  NDX     1     -50.055  -1.099  17.261  1.00  0.00    -0.235 NA
HETATM    9  C8  NDX     1     -51.122  -0.538  17.883  1.00  0.00     0.033 A 
HETATM   10  C9  NDX     1     -51.050   0.682  18.542  1.00  0.00     0.028 A 
HETATM   11  C10 NDX     1     -49.835   1.354  18.562  1.00  0.00     0.021 A 
HETATM   12  C11 NDX     1     -52.416  -1.294  17.839  1.00  0.00     0.070 C 
ENDROOT
BRANCH   3  13
HETATM   13  C12 NDX     1     -44.984   1.473  16.975  1.00  0.00     0.181 C 
HETATM   14  O2  NDX     1     -43.945   0.855  16.809  1.00  0.00    -0.646 OA
BRANCH  13  15
HETATM   15  O3  NDX     1     -44.998   2.813  16.932  1.00  0.00    -0.773 OA
HETATM   16  H12 NDX     1     -45.574   3.038  16.175  1.00  0.00     0.167 HD
ENDBRANCH  13  15
ENDBRANCH   3  13
BRANCH   1  17
HETATM   17  C2  NDX     1     -47.947  -2.296  15.954  1.00  0.00     0.125 C 
HETATM   18  C1  NDX     1     -46.636  -2.844  15.407  1.00  0.00     0.027 C 
ENDBRANCH   1  17
TORSDOF 3
ENDMDL
