MODEL 1
REMARK VINA RESULT:      -2.0      0.000      0.000
REMARK  3 active torsions:
REMARK  status: ('A' for Active; 'I' for Inactive)
REMARK    1  A    between atoms: C2_2  and  N1_3 
REMARK    2  A    between atoms: C4_5  and  C12_15 
REMARK    3  A    between atoms: C12_15  and  O3_17 
ROOT
HETATM    1  N1  NDX     1     -47.705  -0.972  16.594  1.00  0.00    -0.340 N 
HETATM    2  C3  NDX     1     -46.518  -0.263  16.557  1.00  0.00     0.115 A 
HETATM    3  C4  NDX     1     -46.288   0.918  17.153  1.00  0.00     0.104 A 
HETATM    4  C5  NDX     1     -47.399   1.500  17.942  1.00  0.00     0.204 A 
HETATM    5  O1  NDX     1     -47.273   2.513  18.624  1.00  0.00    -0.286 OA
HETATM    6  C6  NDX     1     -48.703   0.796  17.920  1.00  0.00     0.061 A 
HETATM    7  C7  NDX     1     -48.832  -0.425  17.249  1.00  0.00     0.144 A 
HETATM    8  N2  NDX     1     -50.019  -1.082  17.223  1.00  0.00    -0.235 NA
HETATM    9  C8  NDX     1     -51.087  -0.540  17.861  1.00  0.00     0.033 A 
HETATM   10  C9  NDX     1     -51.019   0.666  18.546  1.00  0.00     0.028 A 
HETATM   11  C10 NDX     1     -49.808   1.344  18.576  1.00  0.00     0.021 A 
HETATM   12  C11 NDX     1     -52.377  -1.302  17.806  1.00  0.00     0.070 C 
ENDROOT
BRANCH   3  13
HETATM   13  C12 NDX     1     -44.964   1.525  16.974  1.00  0.00     0.181 C 
HETATM   14  O2  NDX     1     -43.922   0.916  16.789  1.00  0.00    -0.646 OA
BRANCH  13  15
HETATM   15  O3  NDX     1     -44.985   2.866  16.962  1.00  0.00    -0.773 OA
HETATM   16  H12 NDX     1     -45.610   3.104  16.249  1.00  0.00     0.167 HD
ENDBRANCH  13  15
ENDBRANCH   3  13
BRANCH   1  17
HETATM   17  C2  NDX     1     -47.909  -2.238  15.883  1.00  0.00     0.125 C 
HETATM   18  C1  NDX     1     -46.578  -2.883  15.518  1.00  0.00     0.027 C 
ENDBRANCH   1  17
TORSDOF 3
ENDMDL
