MODEL 1
REMARK VINA RESULT:      -7.0      0.000      0.000
REMARK  3 active torsions:
REMARK  status: ('A' for Active; 'I' for Inactive)
REMARK    1  A    between atoms: C2_2  and  N1_3 
REMARK    2  A    between atoms: C4_5  and  C12_15 
REMARK    3  A    between atoms: C12_15  and  O3_17 
ROOT
HETATM    1  N1  NDX     1     -24.599   2.065  46.135  1.00  0.00    -0.340 N 
HETATM    2  C3  NDX     1     -25.155   1.978  44.872  1.00  0.00     0.115 A 
HETATM    3  C4  NDX     1     -25.577   3.011  44.126  1.00  0.00     0.104 A 
HETATM    4  C5  NDX     1     -25.407   4.367  44.699  1.00  0.00     0.204 A 
HETATM    5  O1  NDX     1     -25.648   5.392  44.068  1.00  0.00    -0.286 OA
HETATM    6  C6  NDX     1     -24.894   4.471  46.086  1.00  0.00     0.061 A 
HETATM    7  C7  NDX     1     -24.499   3.320  46.777  1.00  0.00     0.144 A 
HETATM    8  N2  NDX     1     -24.023   3.400  48.045  1.00  0.00    -0.235 NA
HETATM    9  C8  NDX     1     -23.933   4.616  48.640  1.00  0.00     0.033 A 
HETATM   10  C9  NDX     1     -24.306   5.792  48.004  1.00  0.00     0.028 A 
HETATM   11  C10 NDX     1     -24.794   5.718  46.706  1.00  0.00     0.021 A 
HETATM   12  C11 NDX     1     -23.401   4.655  50.042  1.00  0.00     0.070 C 
ENDROOT
BRANCH   3  13
HETATM   13  C12 NDX     1     -26.165   2.710  42.815  1.00  0.00     0.181 C 
HETATM   14  O2  NDX     1     -26.943   1.800  42.577  1.00  0.00    -0.646 OA
BRANCH  13  15
HETATM   15  O3  NDX     1     -25.822   3.585  41.859  1.00  0.00    -0.773 OA
HETATM   16  H12 NDX     1     -25.278   3.073  41.228  1.00  0.00     0.167 HD
ENDBRANCH  13  15
ENDBRANCH   3  13
BRANCH   1  17
HETATM   17  C2  NDX     1     -24.198   0.892  46.920  1.00  0.00     0.125 C 
HETATM   18  C1  NDX     1     -23.758  -0.250  46.014  1.00  0.00     0.027 C 
ENDBRANCH   1  17
TORSDOF 3
ENDMDL
