MODEL 1
REMARK VINA RESULT:      -4.3      0.000      0.000
REMARK  3 active torsions:
REMARK  status: ('A' for Active; 'I' for Inactive)
REMARK    1  A    between atoms: C2_2  and  N1_3 
REMARK    2  A    between atoms: C4_5  and  C12_15 
REMARK    3  A    between atoms: C12_15  and  O3_17 
ROOT
HETATM    1  N1  NDX     1      18.822   0.064 -57.992  1.00  0.00    -0.340 N 
HETATM    2  C3  NDX     1      19.810  -0.174 -57.055  1.00  0.00     0.115 A 
HETATM    3  C4  NDX     1      20.339   0.736 -56.222  1.00  0.00     0.104 A 
HETATM    4  C5  NDX     1      19.795   2.113 -56.298  1.00  0.00     0.204 A 
HETATM    5  O1  NDX     1      20.115   3.000 -55.512  1.00  0.00    -0.286 OA
HETATM    6  C6  NDX     1      18.798   2.403 -57.355  1.00  0.00     0.061 A 
HETATM    7  C7  NDX     1      18.330   1.375 -58.181  1.00  0.00     0.144 A 
HETATM    8  N2  NDX     1      17.415   1.625 -59.151  1.00  0.00    -0.235 NA
HETATM    9  C8  NDX     1      16.954   2.891 -59.312  1.00  0.00     0.033 A 
HETATM   10  C9  NDX     1      17.379   3.951 -58.521  1.00  0.00     0.028 A 
HETATM   11  C10 NDX     1      18.316   3.702 -57.527  1.00  0.00     0.021 A 
HETATM   12  C11 NDX     1      15.944   3.120 -60.397  1.00  0.00     0.070 C 
ENDROOT
BRANCH   3  13
HETATM   13  C12 NDX     1      21.402   0.291 -55.312  1.00  0.00     0.181 C 
HETATM   14  O2  NDX     1      22.454  -0.227 -55.649  1.00  0.00    -0.646 OA
BRANCH  13  15
HETATM   15  O3  NDX     1      21.155   0.564 -54.023  1.00  0.00    -0.773 OA
HETATM   16  H12 NDX     1      21.930   1.076 -53.718  1.00  0.00     0.167 HD
ENDBRANCH  13  15
ENDBRANCH   3  13
BRANCH   1  17
HETATM   17  C2  NDX     1      18.316  -0.966 -58.907  1.00  0.00     0.125 C 
HETATM   18  C1  NDX     1      19.289  -2.133 -59.010  1.00  0.00     0.027 C 
ENDBRANCH   1  17
TORSDOF 3
ENDMDL
