REMARK  3 active torsions:
REMARK  status: ('A' for Active; 'I' for Inactive)
REMARK    1  A    between atoms: C2_2  and  N1_3 
REMARK    2  A    between atoms: C4_5  and  C12_15 
REMARK    3  A    between atoms: C12_15  and  O3_17 
ROOT
HETATM    1  N1  NDX     1       1.021  -0.193   0.540  1.00  0.00    -0.340 N 
HETATM    2  C3  NDX     1       1.727   0.996   0.514  1.00  0.00     0.115 A 
HETATM    3  C4  NDX     1       1.226   2.201   0.200  1.00  0.00     0.104 A 
HETATM    4  C5  NDX     1      -0.219   2.265  -0.123  1.00  0.00     0.204 A 
HETATM    5  O1  NDX     1      -0.813   3.322  -0.312  1.00  0.00    -0.286 OA
HETATM    6  C6  NDX     1      -0.969   0.988  -0.184  1.00  0.00     0.061 A 
HETATM    7  C7  NDX     1      -0.337  -0.215   0.149  1.00  0.00     0.144 A 
HETATM    8  N2  NDX     1      -1.012  -1.391   0.101  1.00  0.00    -0.235 NA
HETATM    9  C8  NDX     1      -2.316  -1.388  -0.274  1.00  0.00     0.033 A 
HETATM   10  C9  NDX     1      -2.997  -0.226  -0.612  1.00  0.00     0.028 A 
HETATM   11  C10 NDX     1      -2.312   0.981  -0.566  1.00  0.00     0.021 A 
HETATM   12  C11 NDX     1      -3.021  -2.711  -0.312  1.00  0.00     0.070 C 
ENDROOT
BRANCH   3  13
HETATM   13  C12 NDX     1       2.147   3.344   0.205  1.00  0.00     0.181 C 
HETATM   14  O2  NDX     1       3.196   3.409   0.826  1.00  0.00    -0.646 OA
BRANCH  13  15
HETATM   15  O3  NDX     1       1.772   4.340  -0.611  1.00  0.00    -0.773 OA
HETATM   16  H12 NDX     1       2.456   5.030  -0.501  1.00  0.00     0.167 HD
ENDBRANCH  13  15
ENDBRANCH   3  13
BRANCH   1  17
HETATM   17  C2  NDX     1       1.637  -1.488   0.848  1.00  0.00     0.125 C 
HETATM   18  C1  NDX     1       2.163  -2.159  -0.414  1.00  0.00     0.027 C 
ENDBRANCH   1  17
TORSDOF 3
