@<TRIPOS>MOLECULE
*****
 59 61 0 0 0
SMALL
GASTEIGER

@<TRIPOS>ATOM
      1  C1        11.6355  -47.3039  -16.8392 C.3     1  STM1        0.0348
      2  N1         7.8482  -43.0382   -9.7594 N.3     1  STM1       -0.2703
      3  O1         9.5064  -46.6645  -15.9109 O.3     1  STM1       -0.3286
      4  C2        10.1944  -47.7670  -16.5502 C.3     1  STM1        0.1472
      5  N2         9.7701  -41.5396   -9.9876 N.3     1  STM1       -0.2970
      6  O2         8.0742  -46.8683  -14.0311 O.3     1  STM1       -0.3271
      7  C3        10.1108  -48.9236  -15.5272 C.3     1  STM1        0.1697
      8  N3         9.6568  -43.0527   -8.1196 N.3     1  STM1       -0.2970
      9  O3         8.2656  -47.7127  -11.2965 O.3     1  STM1       -0.3795
     10  C4        10.0690  -48.2043  -14.1679 C.3     1  STM1        0.2028
     11  N4         7.4296  -44.1116  -14.6189 N.3     1  STM1       -0.2703
     12  O4         8.7615  -45.8016   -9.2922 O.3     1  STM1       -0.3804
     13  C5         9.4438  -46.8367  -14.4737 C.3     1  STM1        0.2660
     14  N5         5.6689  -44.4483  -16.1987 N.3     1  STM1       -0.2970
     15  O5         7.9615  -42.1983  -12.5457 O.3     1  STM1       -0.3815
     16  C6         7.7569  -45.9685  -12.9398 C.3     1  STM1        0.1637
     17  N6         5.1504  -43.5002  -14.0669 N.3     1  STM1       -0.2970
     18  O6        11.4107  -47.9553  -13.6724 O.3     1  STM1       -0.3241
     19  C7         8.0437  -44.5003  -13.3257 C.3     1  STM1        0.1146
     20  N7        11.9656  -50.1898  -12.1343 N.3     1  STM1       -0.2913
     21  O7        12.6628  -47.0167  -11.8658 O.3     1  STM1       -0.3268
     22  C8         7.6610  -43.5465  -12.1756 C.3     1  STM1        0.1441
     23  O8        11.6011  -44.6116  -10.0484 O.3     1  STM1       -0.3794
     24  C9         8.3483  -43.9243  -10.8385 C.3     1  STM1        0.1142
     25  O9        12.3947  -47.4907   -8.1812 O.3     1  STM1       -0.3795
     26  C10        8.0895  -45.4133  -10.4939 C.3     1  STM1        0.1564
     27  O10       10.6492  -49.5959   -9.2343 O.3     1  STM1       -0.3804
     28  C11        8.5114  -46.3458  -11.6475 C.3     1  STM1        0.1671
     29  O11        7.7294  -49.1446  -16.3144 O.3     1  STM1       -0.3794
     30  C12        8.8723  -42.2357   -9.0542 C.3     1  STM1        0.1675
     31  O12       11.2408  -49.8024  -15.5977 O.3     1  STM1       -0.3794
     32  C13        6.0064  -44.4638  -14.7721 C.3     1  STM1        0.1675
     33  C14       11.4441  -47.6966  -12.2503 C.3     1  STM1        0.2528
     34  C15       11.3038  -49.0363  -11.4832 C.3     1  STM1        0.1408
     35  C16       11.6666  -48.9369   -9.9890 C.3     1  STM1        0.1589
     36  C17       11.8644  -47.4843   -9.5106 C.3     1  STM1        0.1683
     37  C18       12.8356  -46.7198  -10.4460 C.3     1  STM1        0.1760
     38  C19       12.8989  -45.1971  -10.1838 C.3     1  STM1        0.1693
     39  C20       13.4367  -50.0955  -12.1239 C.3     1  STM1        0.0860
     40  C21        8.8521  -49.8102  -15.7237 C.3     1  STM1        0.1689
     41  H1         7.2883  -43.5693   -9.0964 H       1  STM1        0.1258
     42  H3         7.5856  -43.1226  -14.8028 H       1  STM1        0.1258
     43  H6         7.7970  -49.2090  -17.2860 H       1  STM1        0.2105
     44  H13        8.6690  -47.8740  -10.4230 H       1  STM1        0.2105
     45  H14        8.1110  -46.2260   -8.7080 H       1  STM1        0.2105
     46  H15       10.3827  -40.9034   -9.4817 H       1  STM1        0.1213
     47  H16        9.2302  -40.9819  -10.6465 H       1  STM1        0.1213
     48  H17       10.2817  -42.4596   -7.5776 H       1  STM1        0.1213
     49  H18        9.0399  -43.5216   -7.4598 H       1  STM1        0.1213
     50  H19        7.3780  -41.6210  -12.0260 H       1  STM1        0.2105
     51  H20        4.7160  -44.7784  -16.3353 H       1  STM1        0.1213
     52  H21        6.2802  -45.0928  -16.6979 H       1  STM1        0.1213
     53  H22        4.1710  -43.7446  -14.1981 H       1  STM1        0.1213
     54  H23        5.2822  -42.5702  -14.4598 H       1  STM1        0.1213
     55  H31       11.5700  -44.1020   -9.2070 H       1  STM1        0.2105
     56  H32       11.8270  -48.0580   -7.6280 H       1  STM1        0.2105
     57  H33       10.4120  -50.4040   -9.7310 H       1  STM1        0.2105
     58  H34       11.6391  -50.2636  -13.0959 H       1  STM1        0.1235
     59  H39       11.9550  -49.3810  -15.0870 H       1  STM1        0.2105
@<TRIPOS>BOND
     1     1     4    1
     2    43    29    1
     3    52    14    1
     4    51    14    1
     5     4     7    1
     6     4     3    1
     7    14    32    1
     8    29    40    1
     9    31     7    1
    10    31    59    1
    11    40     7    1
    12     7    10    1
    13     3    13    1
    14    54    17    1
    15    32    11    1
    16    32    17    1
    17    42    11    1
    18    11    19    1
    19    17    53    1
    20    13    10    1
    21    13     6    1
    22    10    18    1
    23     6    16    1
    24    18    33    1
    25    19    16    1
    26    19    22    1
    27    58    20    1
    28    16    28    1
    29    15    22    1
    30    15    50    1
    31    33    21    1
    32    33    34    1
    33    22    24    1
    34    20    39    1
    35    20    34    1
    36    21    37    1
    37    28     9    1
    38    28    26    1
    39    34    35    1
    40     9    44    1
    41    24    26    1
    42    24     2    1
    43    37    38    1
    44    37    36    1
    45    47     5    1
    46    38    23    1
    47    26    12    1
    48     5    46    1
    49     5    30    1
    50    35    36    1
    51    35    27    1
    52    57    27    1
    53     2    30    1
    54     2    41    1
    55    36    25    1
    56    23    55    1
    57    12    45    1
    58    30     8    1
    59    25    56    1
    60     8    48    1
    61     8    49    1
