MODEL 1
REMARK VINA RESULT:    -6.067      0.000      0.000
REMARK INTER + INTRA:         -15.554
REMARK INTER:                 -11.564
REMARK INTRA:                  -3.990
REMARK UNBOUND:                -3.990
REMARK  22 active torsions:
REMARK  status: ('A' for Active; 'I' for Inactive)
REMARK    1  A    between atoms: C2_2  and  N6_42 
REMARK    2  A    between atoms: C3_3  and  O13_41 
REMARK    3  A    between atoms: C4_4  and  O5_20 
REMARK    4  A    between atoms: C5_5  and  O1_8 
REMARK    5  A    between atoms: C6_6  and  N1_7 
REMARK    6  A    between atoms: O1_8  and  C7_9 
REMARK    7  A    between atoms: C8_10  and  N3_19 
REMARK    8  A    between atoms: C9_11  and  O4_18 
REMARK    9  A    between atoms: C10_12  and  O3_17 
REMARK   10  A    between atoms: C11_13  and  C12_15 
REMARK   11  A    between atoms: C12_15  and  N2_16 
REMARK   12  A    between atoms: O5_20  and  C13_21 
REMARK   13  A    between atoms: C14_22  and  O12_40 
REMARK   14  A    between atoms: C15_23  and  O8_28 
REMARK   15  A    between atoms: C16_24  and  C17_26 
REMARK   16  A    between atoms: C17_26  and  O7_27 
REMARK   17  A    between atoms: O8_28  and  C18_29 
REMARK   18  A    between atoms: C19_30  and  N5_39 
REMARK   19  A    between atoms: C20_31  and  O11_38 
REMARK   20  A    between atoms: C21_32  and  O10_37 
REMARK   21  A    between atoms: C22_33  and  C23_35 
REMARK   22  A    between atoms: C23_35  and  N4_36 
ROOT
HETATM    1  C1  NEO     1      20.629 -49.632 -16.241  1.00  0.00     0.076 C 
HETATM    2  C2  NEO     1      19.587 -49.517 -17.363  1.00  0.00     0.251 C 
HETATM    3  C3  NEO     1      18.186 -49.232 -16.776  1.00  0.00     0.182 C 
HETATM    4  C4  NEO     1      18.211 -47.950 -15.917  1.00  0.00     0.186 C 
HETATM    5  C5  NEO     1      19.246 -48.067 -14.775  1.00  0.00     0.189 C 
HETATM    6  C6  NEO     1      20.654 -48.364 -15.363  1.00  0.00     0.251 C 
ENDROOT
BRANCH   4   7
HETATM    7  O5  NEO     1      16.922 -47.752 -15.350  1.00  0.00    -0.348 OA
BRANCH   7   8
HETATM    8  C13 NEO     1      16.320 -46.553 -15.810  1.00  0.00     0.292 C 
HETATM    9  C14 NEO     1      15.849 -45.726 -14.624  1.00  0.00     0.205 C 
HETATM   10  C15 NEO     1      15.895 -44.320 -15.175  1.00  0.00     0.189 C 
HETATM   11  C16 NEO     1      17.043 -44.423 -16.190  1.00  0.00     0.180 C 
HETATM   12  O6  NEO     1      17.273 -45.783 -16.509  1.00  0.00    -0.348 OA
BRANCH   9  13
HETATM   13  O12 NEO     1      14.581 -46.100 -14.137  1.00  0.00    -0.388 OA
HETATM   14  H43 NEO     1      14.350 -45.525 -13.362  1.00  0.00     0.210 HD
ENDBRANCH   9  13
BRANCH  10  15
HETATM   15  O8  NEO     1      14.700 -44.022 -15.885  1.00  0.00    -0.348 OA
BRANCH  15  16
HETATM   16  C18 NEO     1      14.057 -42.878 -15.363  1.00  0.00     0.296 C 
HETATM   17  C19 NEO     1      13.696 -41.937 -16.538  1.00  0.00     0.303 C 
HETATM   18  C20 NEO     1      13.090 -40.618 -16.009  1.00  0.00     0.187 C 
HETATM   19  C21 NEO     1      13.931 -40.033 -14.853  1.00  0.00     0.179 C 
HETATM   20  C22 NEO     1      14.255 -41.140 -13.822  1.00  0.00     0.183 C 
HETATM   21  O9  NEO     1      14.925 -42.216 -14.456  1.00  0.00    -0.349 OA
BRANCH  17  22
HETATM   22  N5  NEO     1      14.857 -41.663 -17.395  1.00  0.00     0.090 N 
HETATM   23  H41 NEO     1      14.545 -41.298 -18.323  1.00  0.00     0.313 HD
HETATM   24  H42 NEO     1      15.434 -40.912 -16.948  1.00  0.00     0.313 HD
ENDBRANCH  17  22
BRANCH  18  25
HETATM   25  O11 NEO     1      11.782 -40.844 -15.552  1.00  0.00    -0.391 OA
HETATM   26  H40 NEO     1      11.214 -40.980 -16.354  1.00  0.00     0.210 HD
ENDBRANCH  18  25
BRANCH  19  27
HETATM   27  O10 NEO     1      15.122 -39.475 -15.349  1.00  0.00    -0.390 OA
HETATM   28  H39 NEO     1      15.376 -40.005 -16.148  1.00  0.00     0.210 HD
ENDBRANCH  19  27
BRANCH  20  29
HETATM   29  C23 NEO     1      15.147 -40.629 -12.669  1.00  0.00     0.301 C 
BRANCH  29  30
HETATM   30  N4  NEO     1      16.287 -41.505 -12.404  1.00  0.00     0.080 N 
HETATM   31  H37 NEO     1      16.619 -41.354 -11.425  1.00  0.00     0.312 HD
HETATM   32  H38 NEO     1      15.993 -42.504 -12.504  1.00  0.00     0.312 HD
ENDBRANCH  29  30
ENDBRANCH  20  29
ENDBRANCH  15  16
ENDBRANCH  10  15
BRANCH  11  33
HETATM   33  C17 NEO     1      18.345 -43.783 -15.676  1.00  0.00     0.198 C 
BRANCH  33  34
HETATM   34  O7  NEO     1      18.076 -42.674 -14.859  1.00  0.00    -0.398 OA
HETATM   35  H29 NEO     1      18.837 -42.588 -14.228  1.00  0.00     0.209 HD
ENDBRANCH  33  34
ENDBRANCH  11  33
ENDBRANCH   7   8
ENDBRANCH   4   7
BRANCH   3  36
HETATM   36  O13 NEO     1      17.271 -49.074 -17.831  1.00  0.00    -0.391 OA
HETATM   37  H44 NEO     1      17.345 -48.135 -18.146  1.00  0.00     0.210 HD
ENDBRANCH   3  36
BRANCH   5  38
HETATM   38  O1  NEO     1      19.249 -46.823 -14.092  1.00  0.00    -0.349 OA
BRANCH  38  39
HETATM   39  C7  NEO     1      19.494 -46.943 -12.694  1.00  0.00     0.296 C 
HETATM   40  C8  NEO     1      18.267 -46.474 -11.891  1.00  0.00     0.303 C 
HETATM   41  C9  NEO     1      18.041 -44.966 -12.119  1.00  0.00     0.187 C 
HETATM   42  C10 NEO     1      19.342 -44.174 -11.872  1.00  0.00     0.179 C 
HETATM   43  C11 NEO     1      20.512 -44.815 -12.662  1.00  0.00     0.183 C 
HETATM   44  O2  NEO     1      20.638 -46.190 -12.323  1.00  0.00    -0.349 OA
BRANCH  40  45
HETATM   45  N3  NEO     1      17.081 -47.236 -12.289  1.00  0.00     0.090 N 
HETATM   46  H21 NEO     1      16.266 -46.902 -11.724  1.00  0.00     0.313 HD
HETATM   47  H22 NEO     1      16.856 -46.996 -13.281  1.00  0.00     0.313 HD
ENDBRANCH  40  45
BRANCH  41  48
HETATM   48  O4  NEO     1      17.000 -44.486 -11.303  1.00  0.00    -0.391 OA
HETATM   49  H20 NEO     1      17.398 -44.214 -10.436  1.00  0.00     0.210 HD
ENDBRANCH  41  48
BRANCH  42  50
HETATM   50  O3  NEO     1      19.151 -42.845 -12.283  1.00  0.00    -0.390 OA
HETATM   51  H19 NEO     1      18.344 -42.509 -11.812  1.00  0.00     0.210 HD
ENDBRANCH  42  50
BRANCH  43  52
HETATM   52  C12 NEO     1      21.867 -44.142 -12.341  1.00  0.00     0.301 C 
BRANCH  52  53
HETATM   53  N2  NEO     1      22.078 -42.886 -13.064  1.00  0.00     0.080 N 
HETATM   54  H17 NEO     1      22.336 -42.131 -12.392  1.00  0.00     0.312 HD
HETATM   55  H18 NEO     1      21.201 -42.607 -13.561  1.00  0.00     0.312 HD
ENDBRANCH  52  53
ENDBRANCH  43  52
ENDBRANCH  38  39
ENDBRANCH   5  38
BRANCH   2  56
HETATM   56  N6  NEO     1      19.589 -50.750 -18.156  1.00  0.00     0.085 N 
HETATM   57  H45 NEO     1      18.610 -50.977 -18.448  1.00  0.00     0.313 HD
HETATM   58  H46 NEO     1      20.148 -50.598 -19.029  1.00  0.00     0.313 HD
ENDBRANCH   2  56
BRANCH   6  59
HETATM   59  N1  NEO     1      21.646 -48.513 -14.296  1.00  0.00     0.085 N 
HETATM   60  H8  NEO     1      22.044 -47.576 -14.059  1.00  0.00     0.313 HD
HETATM   61  H9  NEO     1      21.171 -48.880 -13.438  1.00  0.00     0.313 HD
ENDBRANCH   6  59
TORSDOF 22
ENDMDL
