MODEL 1
REMARK VINA RESULT:    -6.207      0.000      0.000
REMARK INTER + INTRA:          -8.508
REMARK INTER:                  -7.840
REMARK INTRA:                  -0.668
REMARK UNBOUND:                -0.668
REMARK  6 active torsions:
REMARK  status: ('A' for Active; 'I' for Inactive)
REMARK    1  A    between atoms: C2_2  and  N1_3 
REMARK    2  A    between atoms: C4_5  and  C16_21 
REMARK    3  A    between atoms: C5_6  and  O1_7 
REMARK    4  A    between atoms: C9_11  and  N2_14 
REMARK    5  A    between atoms: C16_21  and  O2_22 
REMARK    6  A    between atoms: C16_21  and  O3_23 
ROOT
HETATM    1  N1  NOR     1     -17.382 -16.220 -14.904  1.00  0.00     0.093 N 
HETATM    2  C3  NOR     1     -17.706 -17.019 -13.691  1.00  0.00     0.284 C 
HETATM    3  C4  NOR     1     -18.123 -16.182 -12.445  1.00  0.00     0.098 C 
HETATM    4  C5  NOR     1     -19.198 -15.090 -12.761  1.00  0.00     0.135 C 
HETATM    5  C6  NOR     1     -19.459 -14.967 -14.275  1.00  0.00     0.051 C 
HETATM    6  C7  NOR     1     -20.392 -13.772 -14.630  1.00  0.00     0.049 C 
HETATM    7  C8  NOR     1     -19.681 -12.627 -15.376  1.00  0.00     0.204 C 
HETATM    8  C9  NOR     1     -18.853 -13.102 -16.609  1.00  0.00     0.258 C 
HETATM    9  C10 NOR     1     -18.356 -14.571 -16.488  1.00  0.00     0.075 C 
HETATM   10  C11 NOR     1     -18.099 -14.925 -15.013  1.00  0.00     0.231 C 
HETATM   11  F1  NOR     1     -20.600 -11.655 -15.735  1.00  0.00    -0.247 F 
ENDROOT
BRANCH   8  12
HETATM   12  N2  NOR     1     -19.518 -12.787 -17.905  1.00  0.00     0.099 N 
HETATM   13  C12 NOR     1     -18.651 -11.992 -18.798  1.00  0.00     0.302 C 
HETATM   14  C13 NOR     1     -19.458 -11.508 -20.009  1.00  0.00     0.299 C 
HETATM   15  N3  NOR     1     -20.054 -12.637 -20.734  1.00  0.00     0.086 N 
HETATM   16  C14 NOR     1     -20.886 -13.451 -19.838  1.00  0.00     0.299 C 
HETATM   17  H13 NOR     1     -19.285 -13.236 -21.118  1.00  0.00     0.315 HD
HETATM   18  C15 NOR     1     -20.080 -13.945 -18.631  1.00  0.00     0.302 C 
ENDBRANCH   8  12
BRANCH   1  19
HETATM   19  C2  NOR     1     -15.923 -16.097 -15.126  1.00  0.00     0.268 C 
HETATM   20  C1  NOR     1     -15.406 -17.342 -15.837  1.00  0.00     0.037 C 
ENDBRANCH   1  19
BRANCH   4  21
HETATM   21  O1  NOR     1     -20.405 -15.405 -12.115  1.00  0.00    -0.395 OA
HETATM   22  H4  NOR     1     -20.991 -14.607 -12.199  1.00  0.00     0.210 HD
ENDBRANCH   4  21
BRANCH   3  23
HETATM   23  C16 NOR     1     -16.904 -15.617 -11.672  1.00  0.00     0.262 C 
BRANCH  23  24
HETATM   24  O2  NOR     1     -17.014 -15.935 -10.308  1.00  0.00    -0.371 OA
HETATM   25  H12 NOR     1     -16.348 -15.375  -9.827  1.00  0.00     0.212 HD
ENDBRANCH  23  24
BRANCH  23  26
HETATM   26  O3  NOR     1     -16.833 -14.224 -11.810  1.00  0.00    -0.371 OA
HETATM   27  H18 NOR     1     -15.875 -14.004 -11.950  1.00  0.00     0.212 HD
ENDBRANCH  23  26
ENDBRANCH   3  23
TORSDOF 6
ENDMDL
