MODEL 1
REMARK VINA RESULT:    -6.074      0.000      0.000
REMARK INTER + INTRA:          -9.247
REMARK INTER:                  -8.560
REMARK INTRA:                  -0.688
REMARK UNBOUND:                -0.688
REMARK  9 active torsions:
REMARK  status: ('A' for Active; 'I' for Inactive)
REMARK    1  A    between atoms: C3_3  and  C15_20 
REMARK    2  A    between atoms: C5_7  and  N2_10 
REMARK    3  A    between atoms: C6_8  and  O1_9 
REMARK    4  A    between atoms: N2_10  and  C7_11 
REMARK    5  A    between atoms: C7_11  and  O2_12 
REMARK    6  A    between atoms: C7_11  and  C8_13 
REMARK    7  A    between atoms: C8_13  and  C9_14 
REMARK    8  A    between atoms: C15_20  and  O3_21 
REMARK    9  A    between atoms: C15_20  and  O4_22 
ROOT
HETATM    1  C1  PEN     1       6.157 -56.663   4.465  1.00  0.00     0.029 C 
HETATM    2  C2  PEN     1       5.664 -55.201   4.381  1.00  0.00     0.039 C 
HETATM    3  C3  PEN     1       4.587 -54.768   5.449  1.00  0.00     0.299 C 
HETATM    4  N1  PEN     1       3.413 -54.135   4.809  1.00  0.00     0.146 N 
HETATM    5  C4  PEN     1       3.421 -54.245   3.350  1.00  0.00     0.326 A 
HETATM    6  S1  PEN     1       4.957 -54.989   2.721  1.00  0.00    -0.119 SA
HETATM    7  C5  PEN     1       3.290 -52.731   3.150  1.00  0.00     0.325 A 
HETATM    8  C6  PEN     1       3.380 -52.661   4.679  1.00  0.00     0.395 A 
HETATM    9  C16 PEN     1       6.909 -54.295   4.487  1.00  0.00     0.029 C 
ENDROOT
BRANCH   7  10
HETATM   10  N2  PEN     1       4.393 -52.101   2.393  1.00  0.00     0.124 N 
HETATM   11  H7  PEN     1       4.926 -51.433   2.992  1.00  0.00     0.320 HD
BRANCH  10  12
HETATM   12  C7  PEN     1       3.895 -51.404   1.193  1.00  0.00     0.354 C 
BRANCH  12  13
HETATM   13  O2  PEN     1       3.189 -50.250   1.576  1.00  0.00    -0.368 OA
HETATM   14  H4  PEN     1       3.865 -49.589   1.879  1.00  0.00     0.212 HD
ENDBRANCH  12  13
BRANCH  12  15
HETATM   15  C8  PEN     1       5.087 -50.987   0.313  1.00  0.00     0.068 C 
BRANCH  15  16
HETATM   16  C9  PEN     1       5.064 -51.632  -1.092  1.00  0.00    -0.010 C 
HETATM   17  C10 PEN     1       4.969 -53.165  -0.976  1.00  0.00     0.005 C 
HETATM   18  C11 PEN     1       5.076 -53.852  -2.353  1.00  0.00     0.000 C 
HETATM   19  C12 PEN     1       4.532 -52.993  -3.512  1.00  0.00     0.000 C 
HETATM   20  C13 PEN     1       3.413 -52.060  -3.044  1.00  0.00     0.000 C 
HETATM   21  C14 PEN     1       3.906 -51.074  -1.966  1.00  0.00     0.005 C 
ENDBRANCH  15  16
ENDBRANCH  12  15
ENDBRANCH  10  12
ENDBRANCH   7  10
BRANCH   8  22
HETATM   22  O1  PEN     1       4.539 -52.024   5.154  1.00  0.00    -0.366 OA
HETATM   23  H2  PEN     1       5.258 -52.707   5.135  1.00  0.00     0.212 HD
ENDBRANCH   8  22
BRANCH   3  24
HETATM   24  C15 PEN     1       4.033 -55.872   6.381  1.00  0.00     0.289 C 
BRANCH  24  25
HETATM   25  O3  PEN     1       3.939 -55.407   7.702  1.00  0.00    -0.369 OA
HETATM   26  H12 PEN     1       3.016 -55.060   7.818  1.00  0.00     0.212 HD
ENDBRANCH  24  25
BRANCH  24  27
HETATM   27  O4  PEN     1       2.787 -56.331   5.927  1.00  0.00    -0.369 OA
HETATM   28  H15 PEN     1       2.409 -55.614   5.354  1.00  0.00     0.212 HD
ENDBRANCH  24  27
ENDBRANCH   3  24
TORSDOF 9
ENDMDL
