@<TRIPOS>MOLECULE
pgl.pdb
   37    36     1     0     0
SMALL
bcc


@<TRIPOS>ATOM
      1 C5          58.5120    77.5380    31.4480 c3         1 PGL       0.142400
      2 C4          57.3890    76.7330    32.1350 c3         1 PGL       0.130100
      3 C3          57.5800    76.6210    33.6540 c3         1 PGL       0.131400
      4 O2          56.7040    75.6490    34.2170 os         1 PGL      -0.443900
      5 C2          55.6530    75.9840    35.0730 c          1 PGL       0.636100
      6 C1          54.2490    75.8370    34.5930 c3         1 PGL      -0.150100
      7 O1          55.8800    76.4040    36.2400 o          1 PGL      -0.541000
      8 O7          56.0810    77.2130    31.7960 os         1 PGL      -0.421900
      9 C8          55.2020    76.6420    30.8650 c          1 PGL       0.640100
     10 O8          54.5330    75.6090    31.1390 o          1 PGL      -0.553000
     11 C9          55.0090    77.3080    29.5460 c3         1 PGL      -0.149100
     12 O3          58.7940    78.7140    32.1780 os         1 PGL      -0.568200
     13 P1          60.4780    78.8600    32.4420 p5         1 PGL       1.629500
     14 O4          61.1000    77.5100    32.7190 o          1 PGL      -0.809300
     15 O5          60.7370    79.8620    33.7800 oh         1 PGL      -0.766400
     16 H9          61.7160    79.8370    33.9260 ho         1 PGL       0.489000
     17 O6          61.2590    79.5520    31.0850 os         1 PGL      -0.556200
     18 C6          62.2340    80.4860    31.5010 c3         1 PGL       0.184400
     19 C7          63.5750    79.8130    31.8240 c3         1 PGL       0.132800
     20 N1          63.9080    80.0060    33.2310 n8         1 PGL      -0.932800
     21 H14         64.1240    81.0200    33.3790 hn         1 PGL       0.358300
     22 H15         64.7940    79.4840    33.4220 hn         1 PGL       0.358300
     23 H           58.2010    77.8030    30.4590 h1         1 PGL       0.079200
     24 H2          59.3950    76.9350    31.4070 h1         1 PGL       0.079200
     25 H3          57.4650    75.7400    31.7450 h1         1 PGL       0.093700
     26 H4          57.3790    77.5720    34.1010 h1         1 PGL       0.075700
     27 H5          58.5880    76.3170    33.8460 h1         1 PGL       0.075700
     28 H6          54.2520    75.4710    33.5870 hc         1 PGL       0.077033
     29 H7          53.7600    76.7880    34.6250 hc         1 PGL       0.077033
     30 H8          53.7270    75.1460    35.2220 hc         1 PGL       0.077033
     31 H10         55.6500    78.1620    29.4810 hc         1 PGL       0.076700
     32 H11         53.9900    77.6190    29.4490 hc         1 PGL       0.076700
     33 H12         55.2480    76.6210    28.7610 hc         1 PGL       0.076700
     34 H13         61.8800    80.9880    32.3770 h1         1 PGL       0.054200
     35 H16         62.3950    81.1750    30.6980 h1         1 PGL       0.054200
     36 H17         64.3430    80.2450    31.2160 h1         1 PGL       0.042700
     37 H18         63.4970    78.7650    31.6240 h1         1 PGL       0.042700
@<TRIPOS>BOND
     1     1     2 1   
     2     1    12 1   
     3     1    23 1   
     4     1    24 1   
     5     2     3 1   
     6     2     8 1   
     7     2    25 1   
     8     3     4 1   
     9     3    26 1   
    10     3    27 1   
    11     4     5 1   
    12     5     6 1   
    13     5     7 2   
    14     6    28 1   
    15     6    29 1   
    16     6    30 1   
    17     8     9 1   
    18     9    10 2   
    19     9    11 1   
    20    11    31 1   
    21    11    32 1   
    22    11    33 1   
    23    12    13 1   
    24    13    14 2   
    25    13    15 1   
    26    13    17 1   
    27    15    16 1   
    28    17    18 1   
    29    18    19 1   
    30    18    34 1   
    31    18    35 1   
    32    19    20 1   
    33    19    36 1   
    34    19    37 1   
    35    20    21 1   
    36    20    22 1   
@<TRIPOS>SUBSTRUCTURE
     1 PGL         1 TEMP              0 ****  ****    0 ROOT
