MODEL 1
REMARK VINA RESULT:      -7.2      0.000      0.000
REMARK  3 active torsions:
REMARK  status: ('A' for Active; 'I' for Inactive)
REMARK    1  A    between atoms: C7_9  and  C18_24 
REMARK    2  A    between atoms: C12_15  and  N2_16 
REMARK    3  A    between atoms: C18_24  and  O4_26 
ROOT
HETATM    1  C1  LEV     1     -29.026  -8.164  -5.731  1.00  0.00     0.035 C 
HETATM    2  C2  LEV     1     -27.938  -7.133  -6.042  1.00  0.00     0.110 C 
HETATM    3  C3  LEV     1     -27.233  -7.423  -7.369  1.00  0.00     0.201 C 
HETATM    4  O1  LEV     1     -28.132  -7.342  -8.476  1.00  0.00    -0.344 OA
HETATM    5  C4  LEV     1     -28.802  -6.129  -8.519  1.00  0.00     0.126 A 
HETATM    6  C5  LEV     1     -28.981  -5.355  -7.349  1.00  0.00     0.085 A 
HETATM    7  N1  LEV     1     -28.520  -5.781  -6.083  1.00  0.00    -0.346 N 
HETATM    8  C6  LEV     1     -28.749  -5.001  -4.966  1.00  0.00     0.114 A 
HETATM    9  C7  LEV     1     -29.359  -3.803  -4.946  1.00  0.00     0.104 A 
HETATM   10  C8  LEV     1     -29.835  -3.277  -6.254  1.00  0.00     0.202 A 
HETATM   11  O2  LEV     1     -30.372  -2.181  -6.371  1.00  0.00    -0.286 OA
HETATM   12  C9  LEV     1     -29.643  -4.123  -7.461  1.00  0.00     0.048 A 
HETATM   13  C10 LEV     1     -30.130  -3.683  -8.693  1.00  0.00     0.062 A 
HETATM   14  C11 LEV     1     -29.962  -4.476  -9.824  1.00  0.00     0.146 A 
HETATM   15  C12 LEV     1     -29.297  -5.716  -9.784  1.00  0.00     0.105 A 
HETATM   16  F1  LEV     1     -30.493  -4.020 -10.971  1.00  0.00    -0.204 F 
ENDROOT
BRANCH  15  17
HETATM   17  N2  LEV     1     -29.120  -6.544 -10.914  1.00  0.00    -0.373 N 
HETATM   18  C13 LEV     1     -28.151  -6.135 -11.956  1.00  0.00     0.153 C 
HETATM   19  C14 LEV     1     -28.851  -5.702 -13.264  1.00  0.00     0.291 C 
HETATM   20  N3  LEV     1     -29.742  -6.723 -13.863  1.00  0.00     0.087 N 
HETATM   21  C15 LEV     1     -30.227  -7.679 -12.840  1.00  0.00     0.291 C 
HETATM   22  C17 LEV     1     -29.092  -7.435 -14.960  1.00  0.00     0.310 C 
HETATM   23  C16 LEV     1     -30.413  -7.043 -11.444  1.00  0.00     0.153 C 
ENDBRANCH  15  17
BRANCH   9  24
HETATM   24  C18 LEV     1     -29.555  -3.066  -3.683  1.00  0.00     0.181 C 
HETATM   25  O3  LEV     1     -30.253  -3.386  -2.738  1.00  0.00    -0.646 OA
BRANCH  24  26
HETATM   26  O4  LEV     1     -28.854  -1.914  -3.621  1.00  0.00    -0.773 OA
HETATM   27  H20 LEV     1     -28.443  -1.865  -4.512  1.00  0.00     0.167 HD
ENDBRANCH  24  26
ENDBRANCH   9  24
TORSDOF 3
ENDMDL
MODEL 2
REMARK VINA RESULT:      -6.5      2.833      7.043
REMARK  3 active torsions:
REMARK  status: ('A' for Active; 'I' for Inactive)
REMARK    1  A    between atoms: C7_9  and  C18_24 
REMARK    2  A    between atoms: C12_15  and  N2_16 
REMARK    3  A    between atoms: C18_24  and  O4_26 
ROOT
HETATM    1  C1  LEV     1     -26.134  -7.236  -9.236  1.00  0.00     0.035 C 
HETATM    2  C2  LEV     1     -27.396  -8.050  -9.534  1.00  0.00     0.110 C 
HETATM    3  C3  LEV     1     -28.200  -8.352  -8.266  1.00  0.00     0.201 C 
HETATM    4  O1  LEV     1     -28.680  -7.157  -7.647  1.00  0.00    -0.344 OA
HETATM    5  C4  LEV     1     -29.406  -6.368  -8.524  1.00  0.00     0.126 A 
HETATM    6  C5  LEV     1     -29.206  -6.459  -9.922  1.00  0.00     0.085 A 
HETATM    7  N1  LEV     1     -28.248  -7.328 -10.493  1.00  0.00    -0.346 N 
HETATM    8  C6  LEV     1     -28.071  -7.355 -11.863  1.00  0.00     0.114 A 
HETATM    9  C7  LEV     1     -28.766  -6.643 -12.767  1.00  0.00     0.104 A 
HETATM   10  C8  LEV     1     -29.817  -5.736 -12.235  1.00  0.00     0.202 A 
HETATM   11  O2  LEV     1     -30.542  -5.064 -12.960  1.00  0.00    -0.286 OA
HETATM   12  C9  LEV     1     -29.991  -5.654 -10.760  1.00  0.00     0.048 A 
HETATM   13  C10 LEV     1     -30.930  -4.770 -10.228  1.00  0.00     0.062 A 
HETATM   14  C11 LEV     1     -31.089  -4.681  -8.848  1.00  0.00     0.146 A 
HETATM   15  C12 LEV     1     -30.343  -5.469  -7.951  1.00  0.00     0.105 A 
HETATM   16  F1  LEV     1     -31.975  -3.779  -8.394  1.00  0.00    -0.204 F 
ENDROOT
BRANCH  15  17
HETATM   17  N2  LEV     1     -30.479  -5.394  -6.547  1.00  0.00    -0.373 N 
HETATM   18  C13 LEV     1     -31.693  -5.955  -5.914  1.00  0.00     0.153 C 
HETATM   19  C14 LEV     1     -32.620  -4.853  -5.353  1.00  0.00     0.291 C 
HETATM   20  N3  LEV     1     -31.985  -3.946  -4.368  1.00  0.00     0.087 N 
HETATM   21  C15 LEV     1     -30.516  -3.898  -4.551  1.00  0.00     0.291 C 
HETATM   22  C17 LEV     1     -32.319  -4.315  -2.996  1.00  0.00     0.310 C 
HETATM   23  C16 LEV     1     -30.073  -4.066  -6.022  1.00  0.00     0.153 C 
ENDBRANCH  15  17
BRANCH   9  24
HETATM   24  C18 LEV     1     -28.477  -6.752 -14.210  1.00  0.00     0.181 C 
HETATM   25  O3  LEV     1     -28.301  -7.768 -14.857  1.00  0.00    -0.646 OA
BRANCH  24  26
HETATM   26  O4  LEV     1     -28.413  -5.557 -14.835  1.00  0.00    -0.773 OA
HETATM   27  H20 LEV     1     -28.579  -4.923 -14.103  1.00  0.00     0.167 HD
ENDBRANCH  24  26
ENDBRANCH   9  24
TORSDOF 3
ENDMDL
MODEL 3
REMARK VINA RESULT:      -6.3      2.755      7.435
REMARK  3 active torsions:
REMARK  status: ('A' for Active; 'I' for Inactive)
REMARK    1  A    between atoms: C7_9  and  C18_24 
REMARK    2  A    between atoms: C12_15  and  N2_16 
REMARK    3  A    between atoms: C18_24  and  O4_26 
ROOT
HETATM    1  C1  LEV     1     -32.209  -5.442 -10.208  1.00  0.00     0.035 C 
HETATM    2  C2  LEV     1     -30.978  -4.545 -10.360  1.00  0.00     0.110 C 
HETATM    3  C3  LEV     1     -30.626  -3.825  -9.056  1.00  0.00     0.201 C 
HETATM    4  O1  LEV     1     -30.275  -4.745  -8.021  1.00  0.00    -0.344 OA
HETATM    5  C4  LEV     1     -29.260  -5.606  -8.408  1.00  0.00     0.126 A 
HETATM    6  C5  LEV     1     -29.028  -5.890  -9.774  1.00  0.00     0.085 A 
HETATM    7  N1  LEV     1     -29.824  -5.342 -10.806  1.00  0.00    -0.346 N 
HETATM    8  C6  LEV     1     -29.574  -5.678 -12.123  1.00  0.00     0.114 A 
HETATM    9  C7  LEV     1     -28.587  -6.476 -12.565  1.00  0.00     0.104 A 
HETATM   10  C8  LEV     1     -27.687  -7.056 -11.532  1.00  0.00     0.202 A 
HETATM   11  O2  LEV     1     -26.729  -7.768 -11.812  1.00  0.00    -0.286 OA
HETATM   12  C9  LEV     1     -27.968  -6.748 -10.105  1.00  0.00     0.048 A 
HETATM   13  C10 LEV     1     -27.177  -7.323  -9.109  1.00  0.00     0.062 A 
HETATM   14  C11 LEV     1     -27.443  -7.047  -7.772  1.00  0.00     0.146 A 
HETATM   15  C12 LEV     1     -28.483  -6.186  -7.372  1.00  0.00     0.105 A 
HETATM   16  F1  LEV     1     -26.677  -7.666  -6.859  1.00  0.00    -0.204 F 
ENDROOT
BRANCH  15  17
HETATM   17  N2  LEV     1     -28.779  -5.894  -6.021  1.00  0.00    -0.373 N 
HETATM   18  C13 LEV     1     -29.845  -6.662  -5.341  1.00  0.00     0.153 C 
HETATM   19  C14 LEV     1     -31.097  -5.799  -5.064  1.00  0.00     0.291 C 
HETATM   20  N3  LEV     1     -30.849  -4.578  -4.262  1.00  0.00     0.087 N 
HETATM   21  C15 LEV     1     -29.441  -4.133  -4.384  1.00  0.00     0.291 C 
HETATM   22  C17 LEV     1     -31.205  -4.768  -2.859  1.00  0.00     0.310 C 
HETATM   23  C16 LEV     1     -28.819  -4.432  -5.767  1.00  0.00     0.153 C 
ENDBRANCH  15  17
BRANCH   9  24
HETATM   24  C18 LEV     1     -28.427  -6.768 -14.002  1.00  0.00     0.181 C 
HETATM   25  O3  LEV     1     -28.265  -7.856 -14.524  1.00  0.00    -0.646 OA
BRANCH  24  26
HETATM   26  O4  LEV     1     -28.476  -5.667 -14.781  1.00  0.00    -0.773 OA
HETATM   27  H20 LEV     1     -27.555  -5.330 -14.734  1.00  0.00     0.167 HD
ENDBRANCH  24  26
ENDBRANCH   9  24
TORSDOF 3
ENDMDL
MODEL 4
REMARK VINA RESULT:      -6.2      2.866      7.668
REMARK  3 active torsions:
REMARK  status: ('A' for Active; 'I' for Inactive)
REMARK    1  A    between atoms: C7_9  and  C18_24 
REMARK    2  A    between atoms: C12_15  and  N2_16 
REMARK    3  A    between atoms: C18_24  and  O4_26 
ROOT
HETATM    1  C1  LEV     1     -33.315  -7.304 -11.000  1.00  0.00     0.035 C 
HETATM    2  C2  LEV     1     -32.485  -6.094 -11.435  1.00  0.00     0.110 C 
HETATM    3  C3  LEV     1     -32.485  -4.986 -10.379  1.00  0.00     0.201 C 
HETATM    4  O1  LEV     1     -31.880  -5.416  -9.160  1.00  0.00    -0.344 OA
HETATM    5  C4  LEV     1     -30.604  -5.920  -9.357  1.00  0.00     0.126 A 
HETATM    6  C5  LEV     1     -30.214  -6.442 -10.613  1.00  0.00     0.085 A 
HETATM    7  N1  LEV     1     -31.100  -6.505 -11.713  1.00  0.00    -0.346 N 
HETATM    8  C6  LEV     1     -30.677  -7.054 -12.909  1.00  0.00     0.114 A 
HETATM    9  C7  LEV     1     -29.447  -7.526 -13.174  1.00  0.00     0.104 A 
HETATM   10  C8  LEV     1     -28.454  -7.454 -12.070  1.00  0.00     0.202 A 
HETATM   11  O2  LEV     1     -27.290  -7.817 -12.201  1.00  0.00    -0.286 OA
HETATM   12  C9  LEV     1     -28.900  -6.912 -10.759  1.00  0.00     0.048 A 
HETATM   13  C10 LEV     1     -28.008  -6.885  -9.687  1.00  0.00     0.062 A 
HETATM   14  C11 LEV     1     -28.425  -6.389  -8.455  1.00  0.00     0.146 A 
HETATM   15  C12 LEV     1     -29.725  -5.891  -8.244  1.00  0.00     0.105 A 
HETATM   16  F1  LEV     1     -27.535  -6.431  -7.450  1.00  0.00    -0.204 F 
ENDROOT
BRANCH  15  17
HETATM   17  N2  LEV     1     -30.176  -5.389  -7.003  1.00  0.00    -0.373 N 
HETATM   18  C13 LEV     1     -29.750  -4.037  -6.580  1.00  0.00     0.153 C 
HETATM   19  C14 LEV     1     -28.756  -4.083  -5.397  1.00  0.00     0.291 C 
HETATM   20  N3  LEV     1     -29.252  -4.788  -4.192  1.00  0.00     0.087 N 
HETATM   21  C15 LEV     1     -30.303  -5.772  -4.541  1.00  0.00     0.291 C 
HETATM   22  C17 LEV     1     -29.739  -3.857  -3.179  1.00  0.00     0.310 C 
HETATM   23  C16 LEV     1     -30.107  -6.415  -5.932  1.00  0.00     0.153 C 
ENDBRANCH  15  17
BRANCH   9  24
HETATM   24  C18 LEV     1     -29.117  -8.100 -14.493  1.00  0.00     0.181 C 
HETATM   25  O3  LEV     1     -29.687  -9.009 -15.069  1.00  0.00    -0.646 OA
BRANCH  24  26
HETATM   26  O4  LEV     1     -28.057  -7.509 -15.084  1.00  0.00    -0.773 OA
HETATM   27  H20 LEV     1     -27.296  -7.935 -14.634  1.00  0.00     0.167 HD
ENDBRANCH  24  26
ENDBRANCH   9  24
TORSDOF 3
ENDMDL
MODEL 5
REMARK VINA RESULT:      -6.2      3.284      7.927
REMARK  3 active torsions:
REMARK  status: ('A' for Active; 'I' for Inactive)
REMARK    1  A    between atoms: C7_9  and  C18_24 
REMARK    2  A    between atoms: C12_15  and  N2_16 
REMARK    3  A    between atoms: C18_24  and  O4_26 
ROOT
HETATM    1  C1  LEV     1     -32.709  -8.608 -10.670  1.00  0.00     0.035 C 
HETATM    2  C2  LEV     1     -32.739  -7.408 -11.620  1.00  0.00     0.110 C 
HETATM    3  C3  LEV     1     -32.739  -6.076 -10.867  1.00  0.00     0.201 C 
HETATM    4  O1  LEV     1     -31.544  -5.900 -10.103  1.00  0.00    -0.344 OA
HETATM    5  C4  LEV     1     -30.403  -6.038 -10.876  1.00  0.00     0.126 A 
HETATM    6  C5  LEV     1     -30.422  -6.789 -12.075  1.00  0.00     0.085 A 
HETATM    7  N1  LEV     1     -31.583  -7.456 -12.530  1.00  0.00    -0.346 N 
HETATM    8  C6  LEV     1     -31.539  -8.203 -13.692  1.00  0.00     0.114 A 
HETATM    9  C7  LEV     1     -30.477  -8.348 -14.503  1.00  0.00     0.104 A 
HETATM   10  C8  LEV     1     -29.232  -7.639 -14.102  1.00  0.00     0.202 A 
HETATM   11  O2  LEV     1     -28.209  -7.663 -14.777  1.00  0.00    -0.286 OA
HETATM   12  C9  LEV     1     -29.242  -6.870 -12.829  1.00  0.00     0.048 A 
HETATM   13  C10 LEV     1     -28.073  -6.242 -12.397  1.00  0.00     0.062 A 
HETATM   14  C11 LEV     1     -28.075  -5.530 -11.201  1.00  0.00     0.146 A 
HETATM   15  C12 LEV     1     -29.227  -5.399 -10.403  1.00  0.00     0.105 A 
HETATM   16  F1  LEV     1     -26.909  -4.987 -10.815  1.00  0.00    -0.204 F 
ENDROOT
BRANCH  15  17
HETATM   17  N2  LEV     1     -29.255  -4.689  -9.182  1.00  0.00    -0.373 N 
HETATM   18  C13 LEV     1     -29.112  -5.439  -7.914  1.00  0.00     0.153 C 
HETATM   19  C14 LEV     1     -30.430  -5.474  -7.108  1.00  0.00     0.291 C 
HETATM   20  N3  LEV     1     -30.994  -4.144  -6.775  1.00  0.00     0.087 N 
HETATM   21  C15 LEV     1     -30.537  -3.113  -7.736  1.00  0.00     0.291 C 
HETATM   22  C17 LEV     1     -30.677  -3.746  -5.407  1.00  0.00     0.310 C 
HETATM   23  C16 LEV     1     -30.321  -3.656  -9.166  1.00  0.00     0.153 C 
ENDBRANCH  15  17
BRANCH   9  24
HETATM   24  C18 LEV     1     -30.550  -9.184 -15.717  1.00  0.00     0.181 C 
HETATM   25  O3  LEV     1     -31.146 -10.236 -15.857  1.00  0.00    -0.646 OA
BRANCH  24  26
HETATM   26  O4  LEV     1     -29.862  -8.674 -16.760  1.00  0.00    -0.773 OA
HETATM   27  H20 LEV     1     -30.149  -7.735 -16.768  1.00  0.00     0.167 HD
ENDBRANCH  24  26
ENDBRANCH   9  24
TORSDOF 3
ENDMDL
MODEL 6
REMARK VINA RESULT:      -6.1      2.890      3.994
REMARK  3 active torsions:
REMARK  status: ('A' for Active; 'I' for Inactive)
REMARK    1  A    between atoms: C7_9  and  C18_24 
REMARK    2  A    between atoms: C12_15  and  N2_16 
REMARK    3  A    between atoms: C18_24  and  O4_26 
ROOT
HETATM    1  C1  LEV     1     -28.193  -6.316  -9.291  1.00  0.00     0.035 C 
HETATM    2  C2  LEV     1     -28.634  -5.044 -10.019  1.00  0.00     0.110 C 
HETATM    3  C3  LEV     1     -28.905  -5.294 -11.504  1.00  0.00     0.201 C 
HETATM    4  O1  LEV     1     -29.984  -6.210 -11.698  1.00  0.00    -0.344 OA
HETATM    5  C4  LEV     1     -31.135  -5.811 -11.039  1.00  0.00     0.126 A 
HETATM    6  C5  LEV     1     -31.071  -4.958  -9.912  1.00  0.00     0.085 A 
HETATM    7  N1  LEV     1     -29.843  -4.493  -9.386  1.00  0.00    -0.346 N 
HETATM    8  C6  LEV     1     -29.834  -3.686  -8.264  1.00  0.00     0.114 A 
HETATM    9  C7  LEV     1     -30.914  -3.237  -7.602  1.00  0.00     0.104 A 
HETATM   10  C8  LEV     1     -32.240  -3.658  -8.127  1.00  0.00     0.202 A 
HETATM   11  O2  LEV     1     -33.298  -3.283  -7.633  1.00  0.00    -0.286 OA
HETATM   12  C9  LEV     1     -32.272  -4.566  -9.304  1.00  0.00     0.048 A 
HETATM   13  C10 LEV     1     -33.499  -5.024  -9.785  1.00  0.00     0.062 A 
HETATM   14  C11 LEV     1     -33.533  -5.883 -10.879  1.00  0.00     0.146 A 
HETATM   15  C12 LEV     1     -32.366  -6.305 -11.544  1.00  0.00     0.105 A 
HETATM   16  F1  LEV     1     -34.741  -6.327 -11.266  1.00  0.00    -0.204 F 
ENDROOT
BRANCH  15  17
HETATM   17  N2  LEV     1     -32.372  -7.182 -12.651  1.00  0.00    -0.373 N 
HETATM   18  C13 LEV     1     -32.842  -6.678 -13.960  1.00  0.00     0.153 C 
HETATM   19  C14 LEV     1     -34.202  -7.292 -14.366  1.00  0.00     0.291 C 
HETATM   20  N3  LEV     1     -34.224  -8.772 -14.427  1.00  0.00     0.087 N 
HETATM   21  C15 LEV     1     -33.179  -9.361 -13.558  1.00  0.00     0.291 C 
HETATM   22  C17 LEV     1     -34.088  -9.263 -15.795  1.00  0.00     0.310 C 
HETATM   23  C16 LEV     1     -32.890  -8.526 -12.291  1.00  0.00     0.153 C 
ENDBRANCH  15  17
BRANCH   9  24
HETATM   24  C18 LEV     1     -30.775  -2.385  -6.405  1.00  0.00     0.181 C 
HETATM   25  O3  LEV     1     -30.291  -2.689  -5.330  1.00  0.00    -0.646 OA
BRANCH  24  26
HETATM   26  O4  LEV     1     -31.255  -1.135  -6.579  1.00  0.00    -0.773 OA
HETATM   27  H20 LEV     1     -30.667  -0.775  -7.279  1.00  0.00     0.167 HD
ENDBRANCH  24  26
ENDBRANCH   9  24
TORSDOF 3
ENDMDL
MODEL 7
REMARK VINA RESULT:      -6.0      5.050     10.086
REMARK  3 active torsions:
REMARK  status: ('A' for Active; 'I' for Inactive)
REMARK    1  A    between atoms: C7_9  and  C18_24 
REMARK    2  A    between atoms: C12_15  and  N2_16 
REMARK    3  A    between atoms: C18_24  and  O4_26 
ROOT
HETATM    1  C1  LEV     1     -33.734 -10.910 -13.625  1.00  0.00     0.035 C 
HETATM    2  C2  LEV     1     -33.799  -9.796 -14.673  1.00  0.00     0.110 C 
HETATM    3  C3  LEV     1     -33.891  -8.408 -14.034  1.00  0.00     0.201 C 
HETATM    4  O1  LEV     1     -32.730  -8.105 -13.259  1.00  0.00    -0.344 OA
HETATM    5  C4  LEV     1     -31.561  -8.244 -13.990  1.00  0.00     0.126 A 
HETATM    6  C5  LEV     1     -31.506  -9.091 -15.121  1.00  0.00     0.085 A 
HETATM    7  N1  LEV     1     -32.617  -9.855 -15.547  1.00  0.00    -0.346 N 
HETATM    8  C6  LEV     1     -32.500 -10.692 -16.641  1.00  0.00     0.114 A 
HETATM    9  C7  LEV     1     -31.408 -10.845 -17.410  1.00  0.00     0.104 A 
HETATM   10  C8  LEV     1     -30.215 -10.039 -17.039  1.00  0.00     0.202 A 
HETATM   11  O2  LEV     1     -29.173 -10.062 -17.686  1.00  0.00    -0.286 OA
HETATM   12  C9  LEV     1     -30.302  -9.169 -15.837  1.00  0.00     0.048 A 
HETATM   13  C10 LEV     1     -29.181  -8.445 -15.430  1.00  0.00     0.062 A 
HETATM   14  C11 LEV     1     -29.255  -7.638 -14.298  1.00  0.00     0.146 A 
HETATM   15  C12 LEV     1     -30.435  -7.505 -13.542  1.00  0.00     0.105 A 
HETATM   16  F1  LEV     1     -28.130  -7.002 -13.931  1.00  0.00    -0.204 F 
ENDROOT
BRANCH  15  17
HETATM   17  N2  LEV     1     -30.535  -6.699 -12.386  1.00  0.00    -0.373 N 
HETATM   18  C13 LEV     1     -30.332  -5.239 -12.512  1.00  0.00     0.153 C 
HETATM   19  C14 LEV     1     -29.009  -4.777 -11.858  1.00  0.00     0.291 C 
HETATM   20  N3  LEV     1     -28.869  -5.123 -10.424  1.00  0.00     0.087 N 
HETATM   21  C15 LEV     1     -29.703  -6.295 -10.070  1.00  0.00     0.291 C 
HETATM   22  C17 LEV     1     -29.185  -3.990  -9.558  1.00  0.00     0.310 C 
HETATM   23  C16 LEV     1     -29.851  -7.315 -11.221  1.00  0.00     0.153 C 
ENDBRANCH  15  17
BRANCH   9  24
HETATM   24  C18 LEV     1     -31.403 -11.781 -18.551  1.00  0.00     0.181 C 
HETATM   25  O3  LEV     1     -32.264 -11.919 -19.401  1.00  0.00    -0.646 OA
BRANCH  24  26
HETATM   26  O4  LEV     1     -30.291 -12.543 -18.613  1.00  0.00    -0.773 OA
HETATM   27  H20 LEV     1     -29.766 -12.100 -19.315  1.00  0.00     0.167 HD
ENDBRANCH  24  26
ENDBRANCH   9  24
TORSDOF 3
ENDMDL
MODEL 8
REMARK VINA RESULT:      -5.9      1.999      2.484
REMARK  3 active torsions:
REMARK  status: ('A' for Active; 'I' for Inactive)
REMARK    1  A    between atoms: C7_9  and  C18_24 
REMARK    2  A    between atoms: C12_15  and  N2_16 
REMARK    3  A    between atoms: C18_24  and  O4_26 
ROOT
HETATM    1  C1  LEV     1     -32.112  -8.435  -7.437  1.00  0.00     0.035 C 
HETATM    2  C2  LEV     1     -30.655  -7.967  -7.405  1.00  0.00     0.110 C 
HETATM    3  C3  LEV     1     -29.794  -8.690  -8.443  1.00  0.00     0.201 C 
HETATM    4  O1  LEV     1     -30.230  -8.415  -9.776  1.00  0.00    -0.344 OA
HETATM    5  C4  LEV     1     -30.294  -7.056 -10.037  1.00  0.00     0.126 A 
HETATM    6  C5  LEV     1     -30.455  -6.120  -8.988  1.00  0.00     0.085 A 
HETATM    7  N1  LEV     1     -30.586  -6.515  -7.637  1.00  0.00    -0.346 N 
HETATM    8  C6  LEV     1     -30.772  -5.561  -6.654  1.00  0.00     0.114 A 
HETATM    9  C7  LEV     1     -30.808  -4.230  -6.837  1.00  0.00     0.104 A 
HETATM   10  C8  LEV     1     -30.637  -3.745  -8.232  1.00  0.00     0.202 A 
HETATM   11  O2  LEV     1     -30.613  -2.554  -8.521  1.00  0.00    -0.286 OA
HETATM   12  C9  LEV     1     -30.484  -4.756  -9.312  1.00  0.00     0.048 A 
HETATM   13  C10 LEV     1     -30.379  -4.334 -10.638  1.00  0.00     0.062 A 
HETATM   14  C11 LEV     1     -30.248  -5.277 -11.653  1.00  0.00     0.146 A 
HETATM   15  C12 LEV     1     -30.198  -6.660 -11.396  1.00  0.00     0.105 A 
HETATM   16  F1  LEV     1     -30.198  -4.811 -12.912  1.00  0.00    -0.204 F 
ENDROOT
BRANCH  15  17
HETATM   17  N2  LEV     1     -30.073  -7.638 -12.408  1.00  0.00    -0.373 N 
HETATM   18  C13 LEV     1     -28.826  -7.689 -13.202  1.00  0.00     0.153 C 
HETATM   19  C14 LEV     1     -29.046  -7.227 -14.661  1.00  0.00     0.291 C 
HETATM   20  N3  LEV     1     -30.078  -7.985 -15.406  1.00  0.00     0.087 N 
HETATM   21  C15 LEV     1     -31.061  -8.602 -14.485  1.00  0.00     0.291 C 
HETATM   22  C17 LEV     1     -29.487  -8.998 -16.277  1.00  0.00     0.310 C 
HETATM   23  C16 LEV     1     -31.315  -7.769 -13.209  1.00  0.00     0.153 C 
ENDBRANCH  15  17
BRANCH   9  24
HETATM   24  C18 LEV     1     -31.024  -3.309  -5.704  1.00  0.00     0.181 C 
HETATM   25  O3  LEV     1     -30.178  -2.737  -5.041  1.00  0.00    -0.646 OA
BRANCH  24  26
HETATM   26  O4  LEV     1     -32.328  -3.112  -5.416  1.00  0.00    -0.773 OA
HETATM   27  H20 LEV     1     -32.662  -2.667  -6.225  1.00  0.00     0.167 HD
ENDBRANCH  24  26
ENDBRANCH   9  24
TORSDOF 3
ENDMDL
MODEL 9
REMARK VINA RESULT:      -5.8      3.246      4.843
REMARK  3 active torsions:
REMARK  status: ('A' for Active; 'I' for Inactive)
REMARK    1  A    between atoms: C7_9  and  C18_24 
REMARK    2  A    between atoms: C12_15  and  N2_16 
REMARK    3  A    between atoms: C18_24  and  O4_26 
ROOT
HETATM    1  C1  LEV     1     -30.031  -5.521  -2.984  1.00  0.00     0.035 C 
HETATM    2  C2  LEV     1     -30.181  -6.951  -3.509  1.00  0.00     0.110 C 
HETATM    3  C3  LEV     1     -31.122  -7.027  -4.714  1.00  0.00     0.201 C 
HETATM    4  O1  LEV     1     -30.618  -6.286  -5.826  1.00  0.00    -0.344 OA
HETATM    5  C4  LEV     1     -29.332  -6.668  -6.171  1.00  0.00     0.126 A 
HETATM    6  C5  LEV     1     -28.473  -7.272  -5.223  1.00  0.00     0.085 A 
HETATM    7  N1  LEV     1     -28.864  -7.492  -3.882  1.00  0.00    -0.346 N 
HETATM    8  C6  LEV     1     -27.975  -8.058  -2.988  1.00  0.00     0.114 A 
HETATM    9  C7  LEV     1     -26.730  -8.481  -3.267  1.00  0.00     0.104 A 
HETATM   10  C8  LEV     1     -26.270  -8.314  -4.672  1.00  0.00     0.202 A 
HETATM   11  O2  LEV     1     -25.170  -8.695  -5.058  1.00  0.00    -0.286 OA
HETATM   12  C9  LEV     1     -27.192  -7.663  -5.639  1.00  0.00     0.048 A 
HETATM   13  C10 LEV     1     -26.767  -7.440  -6.950  1.00  0.00     0.062 A 
HETATM   14  C11 LEV     1     -27.623  -6.820  -7.855  1.00  0.00     0.146 A 
HETATM   15  C12 LEV     1     -28.925  -6.416  -7.507  1.00  0.00     0.105 A 
HETATM   16  F1  LEV     1     -27.141  -6.592  -9.089  1.00  0.00    -0.204 F 
ENDROOT
BRANCH  15  17
HETATM   17  N2  LEV     1     -29.811  -5.778  -8.405  1.00  0.00    -0.373 N 
HETATM   18  C13 LEV     1     -30.339  -6.545  -9.554  1.00  0.00     0.153 C 
HETATM   19  C14 LEV     1     -29.751  -6.058 -10.898  1.00  0.00     0.291 C 
HETATM   20  N3  LEV     1     -29.965  -4.620 -11.188  1.00  0.00     0.087 N 
HETATM   21  C15 LEV     1     -30.160  -3.845  -9.941  1.00  0.00     0.291 C 
HETATM   22  C17 LEV     1     -31.085  -4.410 -12.102  1.00  0.00     0.310 C 
HETATM   23  C16 LEV     1     -29.365  -4.402  -8.739  1.00  0.00     0.153 C 
ENDBRANCH  15  17
BRANCH   9  24
HETATM   24  C18 LEV     1     -25.868  -9.062  -2.220  1.00  0.00     0.181 C 
HETATM   25  O3  LEV     1     -26.216  -9.697  -1.241  1.00  0.00    -0.646 OA
BRANCH  24  26
HETATM   26  O4  LEV     1     -24.553  -8.837  -2.423  1.00  0.00    -0.773 OA
HETATM   27  H20 LEV     1     -24.138  -9.653  -2.066  1.00  0.00     0.167 HD
ENDBRANCH  24  26
ENDBRANCH   9  24
TORSDOF 3
ENDMDL
MODEL 10
REMARK VINA RESULT:      -5.8      3.251      7.533
REMARK  3 active torsions:
REMARK  status: ('A' for Active; 'I' for Inactive)
REMARK    1  A    between atoms: C7_9  and  C18_24 
REMARK    2  A    between atoms: C12_15  and  N2_16 
REMARK    3  A    between atoms: C18_24  and  O4_26 
ROOT
HETATM    1  C1  LEV     1     -27.873  -4.742 -12.041  1.00  0.00     0.035 C 
HETATM    2  C2  LEV     1     -28.267  -6.160 -11.619  1.00  0.00     0.110 C 
HETATM    3  C3  LEV     1     -27.907  -6.448 -10.160  1.00  0.00     0.201 C 
HETATM    4  O1  LEV     1     -28.617  -5.595  -9.261  1.00  0.00    -0.344 OA
HETATM    5  C4  LEV     1     -29.988  -5.650  -9.459  1.00  0.00     0.126 A 
HETATM    6  C5  LEV     1     -30.528  -6.040 -10.707  1.00  0.00     0.085 A 
HETATM    7  N1  LEV     1     -29.712  -6.363 -11.816  1.00  0.00    -0.346 N 
HETATM    8  C6  LEV     1     -30.291  -6.706 -13.022  1.00  0.00     0.114 A 
HETATM    9  C7  LEV     1     -31.608  -6.813 -13.269  1.00  0.00     0.104 A 
HETATM   10  C8  LEV     1     -32.523  -6.524 -12.132  1.00  0.00     0.202 A 
HETATM   11  O2  LEV     1     -33.742  -6.624 -12.221  1.00  0.00    -0.286 OA
HETATM   12  C9  LEV     1     -31.923  -6.104 -10.838  1.00  0.00     0.048 A 
HETATM   13  C10 LEV     1     -32.757  -5.771  -9.770  1.00  0.00     0.062 A 
HETATM   14  C11 LEV     1     -32.200  -5.367  -8.561  1.00  0.00     0.146 A 
HETATM   15  C12 LEV     1     -30.809  -5.293  -8.358  1.00  0.00     0.105 A 
HETATM   16  F1  LEV     1     -33.054  -5.015  -7.585  1.00  0.00    -0.204 F 
ENDROOT
BRANCH  15  17
HETATM   17  N2  LEV     1     -30.218  -4.879  -7.143  1.00  0.00    -0.373 N 
HETATM   18  C13 LEV     1     -30.308  -5.768  -5.964  1.00  0.00     0.153 C 
HETATM   19  C14 LEV     1     -31.250  -5.200  -4.878  1.00  0.00     0.291 C 
HETATM   20  N3  LEV     1     -30.895  -3.847  -4.388  1.00  0.00     0.087 N 
HETATM   21  C15 LEV     1     -30.109  -3.100  -5.398  1.00  0.00     0.291 C 
HETATM   22  C17 LEV     1     -30.177  -3.901  -3.118  1.00  0.00     0.310 C 
HETATM   23  C16 LEV     1     -30.490  -3.448  -6.855  1.00  0.00     0.153 C 
ENDBRANCH  15  17
BRANCH   9  24
HETATM   24  C18 LEV     1     -32.108  -7.180 -14.608  1.00  0.00     0.181 C 
HETATM   25  O3  LEV     1     -31.999  -8.254 -15.170  1.00  0.00    -0.646 OA
BRANCH  24  26
HETATM   26  O4  LEV     1     -32.753  -6.173 -15.233  1.00  0.00    -0.773 OA
HETATM   27  H20 LEV     1     -33.610  -6.587 -15.477  1.00  0.00     0.167 HD
ENDBRANCH  24  26
ENDBRANCH   9  24
TORSDOF 3
ENDMDL
