@<TRIPOS>MOLECULE
*****
   85    87     1     0     0
SMALL
bcc


@<TRIPOS>ATOM
      1 C1          10.7200   -47.3590   -17.7830 c3         1 STM      -0.097100
      2 N1           7.5560   -43.0590    -9.7820 n7         1 STM      -0.835200
      3 O1           9.9870   -46.5030   -15.6320 os         1 STM      -0.401600
      4 C2           9.8160   -47.5960   -16.5540 c5         1 STM       0.108100
      5 N2           9.4430   -41.5040    -9.7300 n8         1 STM      -0.929300
      6 O2           8.2370   -46.8770   -14.0340 os         1 STM      -0.448600
      7 C3          10.1100   -48.8900   -15.7270 c5         1 STM       0.097800
      8 N3           9.2920   -43.2470    -8.0810 n8         1 STM      -0.929300
      9 O3           8.2480   -47.7120   -11.2770 oh         1 STM      -0.625800
     10 C4          10.1070   -48.4130   -14.2430 c5         1 STM       0.062100
     11 N4           7.5380   -44.1530   -14.6730 n7         1 STM      -0.828200
     12 O4           8.4460   -45.8800    -9.2380 oh         1 STM      -0.616800
     13 C5           9.6620   -46.9410   -14.3000 c5         1 STM       0.311900
     14 N5           5.9010   -44.5120   -16.3800 n8         1 STM      -0.936800
     15 O5           7.9060   -42.2410   -12.5620 oh         1 STM      -0.593800
     16 C6           7.7720   -45.9960   -12.9690 c6         1 STM       0.128100
     17 N6           5.3130   -43.1910   -14.4800 n8         1 STM      -0.936800
     18 O6          11.4410   -48.4410   -13.6460 os         1 STM      -0.386600
     19 C7           8.0550   -44.5170   -13.3250 c6         1 STM       0.144500
     20 N7          12.0740   -50.6360   -11.9730 n7         1 STM      -0.811200
     21 O7          12.6430   -47.3470   -11.8650 os         1 STM      -0.403600
     22 C8           7.5400   -43.5810   -12.2030 c6         1 STM       0.087100
     23 O8          11.2640   -44.9230    -9.9440 oh         1 STM      -0.608800
     24 C9           8.1360   -43.9600   -10.8140 c6         1 STM       0.138500
     25 O9          12.1550   -47.5050    -8.1750 oh         1 STM      -0.587800
     26 C10          7.8480   -45.4590   -10.4830 c6         1 STM       0.154100
     27 O10         11.1040   -49.9530    -8.9980 oh         1 STM      -0.593800
     28 C11          8.4270   -46.3320   -11.6070 c6         1 STM       0.061100
     29 O11          7.7370   -49.5900   -16.2050 oh         1 STM      -0.611800
     30 C12          8.5230   -42.3270    -8.9280 c3         1 STM       0.610900
     31 O12         11.3910   -49.4430   -16.0550 oh         1 STM      -0.576800
     32 C13          6.0980   -44.3470   -14.9360 c3         1 STM       0.599900
     33 C14         11.4910   -48.1580   -12.2230 c6         1 STM       0.338900
     34 C15         11.4110   -49.4520   -11.3650 c6         1 STM       0.154500
     35 C16         11.9000   -49.1980    -9.9120 c6         1 STM       0.074100
     36 C17         11.7970   -47.7010    -9.5460 c6         1 STM       0.070100
     37 C18         12.7380   -46.8870   -10.4770 c6         1 STM       0.082100
     38 C19         12.5680   -45.3390   -10.3820 c3         1 STM       0.108400
     39 C20         13.5110   -50.4950   -12.2970 c3         1 STM       0.142100
     40 C21          9.0880   -50.0340   -16.0080 c3         1 STM       0.136400
     41 H01         11.7640   -47.2320   -17.4850 hc         1 STM       0.050367
     42 H02         10.6500   -48.1970   -18.4800 hc         1 STM       0.050367
     43 H03         10.4080   -46.4530   -18.3070 hc         1 STM       0.050367
     44 H04          6.9330   -42.3930   -10.2340 hn         1 STM       0.389800
     45 H05          8.7740   -47.5650   -16.8770 h1         1 STM       0.056700
     46 H06          8.9270   -40.7920   -10.2430 hn         1 STM       0.356300
     47 H07         10.0940   -41.0160    -9.1180 hn         1 STM       0.356300
     48 H08          8.6590   -43.7610    -7.4710 hn         1 STM       0.356300
     49 H09          9.7520   -43.9460    -8.6620 hn         1 STM       0.356300
     50 H10          8.1630   -47.7650   -10.3070 ho         1 STM       0.439000
     51 H11          9.4210   -49.0140   -13.6390 h1         1 STM       0.102700
     52 H12          7.8300   -43.2110   -14.9270 hn         1 STM       0.365800
     53 H13          8.9950   -46.6930    -9.3560 ho         1 STM       0.420000
     54 H14         10.2090   -46.3010   -13.5950 h2         1 STM       0.109700
     55 H15          6.2510   -43.6960   -16.8780 hn         1 STM       0.357050
     56 H16          6.4340   -45.3150   -16.7090 hn         1 STM       0.357050
     57 H17          7.9780   -41.6900   -11.7660 ho         1 STM       0.409000
     58 H18          6.6940   -46.1470   -12.8760 h1         1 STM       0.105700
     59 H19          5.4630   -43.0320   -13.4870 hn         1 STM       0.357050
     60 H20          5.6180   -42.3490   -14.9640 hn         1 STM       0.357050
     61 H21          9.1410   -44.3880   -13.3690 h1         1 STM       0.061700
     62 H22         11.9280   -51.4490   -11.3780 hn         1 STM       0.378800
     63 H23          6.4510   -43.6530   -12.1360 h1         1 STM       0.104700
     64 H24         11.3260   -44.1110    -9.3820 ho         1 STM       0.416000
     65 H25          9.2170   -43.8160   -10.8700 h1         1 STM       0.065700
     66 H26         12.5890   -48.3140    -7.8510 ho         1 STM       0.405000
     67 H27          6.7660   -45.6140   -10.4250 h1         1 STM       0.061700
     68 H28         10.7860   -49.3280    -8.3220 ho         1 STM       0.417000
     69 H29          9.4880   -46.0900   -11.6540 h1         1 STM       0.068700
     70 H30          7.6080   -49.3720   -17.1540 ho         1 STM       0.419000
     71 H31          7.9590   -41.6610    -8.2660 h3         1 STM       0.078700
     72 H32         11.7300   -48.9530   -16.8180 ho         1 STM       0.438000
     73 H33          5.7420   -45.2550   -14.4410 h3         1 STM       0.102700
     74 H34         10.6270   -47.5460   -11.9840 h2         1 STM       0.059700
     75 H35         10.3470   -49.6980   -11.3070 h1         1 STM       0.090700
     76 H36         12.9440   -49.5010    -9.8080 h1         1 STM       0.044700
     77 H37         10.7640   -47.3740    -9.6870 h1         1 STM       0.093700
     78 H38         13.7670   -47.1030   -10.1770 h1         1 STM       0.073700
     79 H39         13.3020   -44.9590    -9.6670 h1         1 STM       0.064200
     80 H40         12.7820   -44.8880   -11.3550 h1         1 STM       0.064200
     81 H41         13.6720   -49.6550   -12.9770 h1         1 STM       0.037700
     82 H42         14.1000   -50.3450   -11.3900 h1         1 STM       0.037700
     83 H43         13.8560   -51.4090   -12.7890 h1         1 STM       0.037700
     84 H44          9.1110   -50.7410   -15.1740 h1         1 STM       0.064700
     85 H45          9.3950   -50.5750   -16.9070 h1         1 STM       0.064700
@<TRIPOS>BOND
     1    42     1 1   
     2     1    43 1   
     3     1    41 1   
     4     1     4 1   
     5    70    29 1   
     6    45     4 1   
     7    55    14 1   
     8    72    31 1   
     9    85    40 1   
    10    56    14 1   
    11     4     7 1   
    12     4     3 1   
    13    14    32 1   
    14    29    40 1   
    15    31     7 1   
    16    40     7 1   
    17    40    84 1   
    18     7    10 1   
    19     3    13 1   
    20    60    17 1   
    21    32    11 1   
    22    32    73 1   
    23    32    17 1   
    24    52    11 1   
    25    11    19 1   
    26    17    59 1   
    27    13    10 1   
    28    13     6 1   
    29    13    54 1   
    30    10    18 1   
    31    10    51 1   
    32     6    16 1   
    33    18    33 1   
    34    61    19 1   
    35    19    16 1   
    36    19    22 1   
    37    16    58 1   
    38    16    28 1   
    39    15    22 1   
    40    15    57 1   
    41    33    74 1   
    42    33    21 1   
    43    33    34 1   
    44    22    63 1   
    45    22    24 1   
    46    20    62 1   
    47    20    39 1   
    48    20    34 1   
    49    21    37 1   
    50    83    39 1   
    51    69    28 1   
    52    81    39 1   
    53    28     9 1   
    54    28    26 1   
    55    75    34 1   
    56    39    82 1   
    57    80    38 1   
    58    34    35 1   
    59     9    50 1   
    60    65    24 1   
    61    46     5 1   
    62    24    26 1   
    63    24     2 1   
    64    37    38 1   
    65    37    78 1   
    66    37    36 1   
    67    38    79 1   
    68    38    23 1   
    69    26    67 1   
    70    26    12 1   
    71    44     2 1   
    72     5    47 1   
    73     5    30 1   
    74    35    76 1   
    75    35    36 1   
    76    35    27 1   
    77     2    30 1   
    78    77    36 1   
    79    36    25 1   
    80    23    64 1   
    81    53    12 1   
    82    27    68 1   
    83    30    71 1   
    84    30     8 1   
    85    49     8 1   
    86    25    66 1   
    87     8    48 1   
@<TRIPOS>SUBSTRUCTURE
     1 STM         1 TEMP              0 ****  ****    0 ROOT
