@<TRIPOS>MOLECULE
*****
 37 40 0 0 0
SMALL
GASTEIGER

@<TRIPOS>ATOM
      1  C1       -27.1975  -28.7383  -12.5509 C.3     1  VIA1       -0.0612
      2  N1       -29.1387  -24.3635  -12.8712 N.ar    1  VIA1       -0.1719
      3  O1       -26.3933  -21.0705  -13.6958 O.2     1  VIA1       -0.2634
      4  S1       -20.2272  -21.6389  -13.9730 S.O2    1  VIA1        0.0634
      5  C2       -27.4697  -27.2998  -13.0183 C.3     1  VIA1       -0.0274
      6  N2       -28.6417  -23.1189  -13.0828 N.ar    1  VIA1       -0.2429
      7  O2       -21.0761  -20.5023  -13.7464 O.2     1  VIA1       -0.1528
      8  C3       -28.1052  -26.4576  -11.8986 C.3     1  VIA1        0.0441
      9  N3       -25.6086  -24.6283  -12.1189 N.ar    1  VIA1       -0.2235
     10  O3       -18.8924  -21.7574  -13.4550 O.2     1  VIA1       -0.1528
     11  C4       -28.0540  -25.0131  -12.3056 C.ar    1  VIA1        0.0974
     12  N4       -25.2000  -22.4256  -12.9050 N.ar    1  VIA1       -0.1873
     13  O4       -23.3845  -26.1848  -11.7859 O.3     1  VIA1       -0.4754
     14  C5       -27.3187  -23.0763  -12.7287 C.ar    1  VIA1        0.1543
     15  N5       -20.1691  -21.8493  -15.5940 N.3     1  VIA1       -0.1527
     16  C6       -26.8920  -24.2297  -12.0039 C.ar    1  VIA1        0.1200
     17  N6       -19.4570  -22.3157  -18.3660 N.3     1  VIA1       -0.2690
     18  C7       -24.7394  -23.6637  -12.5239 C.ar    1  VIA1        0.1685
     19  C8       -26.2561  -22.1096  -13.0822 C.ar    1  VIA1        0.2994
     20  C9       -23.3481  -23.8872  -12.6392 C.ar    1  VIA1        0.0711
     21  C10      -22.7008  -25.0970  -12.3000 C.ar    1  VIA1        0.1415
     22  C11      -21.3154  -25.2115  -12.4437 C.ar    1  VIA1        0.0384
     23  C12      -20.5539  -24.1572  -12.9325 C.ar    1  VIA1        0.0230
     24  C13      -21.1738  -22.9641  -13.2853 C.ar    1  VIA1        0.1225
     25  C14      -22.5535  -22.8458  -13.1363 C.ar    1  VIA1        0.0260
     26  C15      -19.4524  -20.8193  -16.3771 C.3     1  VIA1        0.1131
     27  C16      -19.7563  -20.9518  -17.8838 C.3     1  VIA1        0.0915
     28  C17      -20.2046  -23.3334  -17.6012 C.3     1  VIA1        0.0915
     29  C18      -19.9077  -23.2177  -16.0925 C.3     1  VIA1        0.1131
     30  C19      -19.7329  -22.4353  -19.8045 C.3     1  VIA1        0.0897
     31  C20      -22.8970  -27.5357  -11.9432 C.3     1  VIA1        0.2055
     32  C21      -23.3670  -28.0709  -13.3045 C.3     1  VIA1        0.0512
     33  C22      -29.4021  -22.0916  -13.7827 C.3     1  VIA1        0.1539
     34  H21      -28.1135  -27.3026  -13.9011 H       1  VIA1        0.0311
     35  H13      -26.7202  -29.3099  -13.3497 H       1  VIA1        0.0233
     36  H12      -26.5340  -28.7394  -11.6830 H       1  VIA1        0.0233
     37  H11      -28.1306  -29.2371  -12.2786 H       1  VIA1        0.0233
@<TRIPOS>BOND
     1    30    17    1
     2    17    27    1
     3    17    28    1
     4    27    26    1
     5    28    29    1
     6    26    15    1
     7    29    15    1
     8    15     4    1
     9    34     5    1
    10     4     7    2
    11     4    10    2
    12     4    24    1
    13    32    31    1
    14     3    19    2
    15    24    25   ar
    16    24    23   ar
    17    35     1    1
    18    25    20   ar
    19    19    12   ar
    20    19    14   ar
    21     5     1    1
    22     5     8    1
    23    12    18   ar
    24    33     6    1
    25    14     6   ar
    26    14    16   ar
    27     6     2   ar
    28    23    22   ar
    29    18    20    1
    30    18     9   ar
    31    20    21   ar
    32     1    37    1
    33     1    36    1
    34    16     9   ar
    35    16    11   ar
    36     2    11   ar
    37    11     8    1
    38    22    21   ar
    39    21    13    1
    40    31    13    1
