MODEL 1
REMARK VINA RESULT:    -7.431      0.000      0.000
REMARK INTER + INTRA:         -11.983
REMARK INTER:                 -10.255
REMARK INTRA:                  -1.727
REMARK UNBOUND:                -1.727
REMARK  7 active torsions:
REMARK  status: ('A' for Active; 'I' for Inactive)
REMARK    1  A    between atoms: S_2  and  N_15 
REMARK    2  A    between atoms: O_4  and  C_23 
REMARK    3  A    between atoms: N_12  and  CA_19 
REMARK       I    between atoms: N_12  and  C_24 
REMARK    4  A    between atoms: N_13  and  CA_25 
REMARK       I    between atoms: N_13  and  C_27 
REMARK       I    between atoms: N_14  and  C_27 
REMARK    5  A    between atoms: CA_18  and  C_23 
REMARK    6  A    between atoms: C_24  and  CA_25 
REMARK    7  A    between atoms: CA_25  and  C_26 
ROOT
HETATM    1  CA  MEZ     1     -19.078 -15.396 -15.961  1.00  0.00     0.211 C 
ENDROOT
BRANCH   1   2
HETATM    2  N   MEZ     1     -18.046 -16.402 -16.067  1.00  0.00    -0.325 N 
HETATM    3  C   MEZ     1     -18.105 -17.437 -16.992  1.00  0.00     0.327 C 
HETATM    4  O   MEZ     1     -19.034 -17.579 -17.790  1.00  0.00    -0.247 OA
HETATM    5  N   MEZ     1     -17.002 -18.321 -16.931  1.00  0.00    -0.249 N 
HETATM    6  C   MEZ     1     -16.974 -19.514 -17.778  1.00  0.00     0.159 C 
HETATM    7  C   MEZ     1     -15.869 -18.303 -16.088  1.00  0.00     0.342 C 
HETATM    8  C   MEZ     1     -15.565 -20.093 -17.672  1.00  0.00     0.167 C 
HETATM    9  N   MEZ     1     -15.071 -19.437 -16.443  1.00  0.00    -0.225 N 
HETATM   10  O   MEZ     1     -15.576 -17.490 -15.225  1.00  0.00    -0.245 OA
HETATM   11  H   MEZ     1     -17.241 -16.333 -15.452  1.00  0.00     0.165 HD
BRANCH   9  12
HETATM   12  S   MEZ     1     -13.493 -19.742 -15.922  1.00  0.00     0.232 S 
HETATM   13  O   MEZ     1     -12.599 -18.728 -16.455  1.00  0.00    -0.206 OA
HETATM   14  O   MEZ     1     -13.499 -20.053 -14.502  1.00  0.00    -0.206 OA
HETATM   15  C   MEZ     1     -13.167 -21.254 -16.799  1.00  0.00     0.186 C 
ENDBRANCH   9  12
ENDBRANCH   1   2
BRANCH   1  16
HETATM   16  C   MEZ     1     -19.267 -15.062 -14.487  1.00  0.00     0.245 C 
HETATM   17  O   MEZ     1     -20.129 -14.284 -14.079  1.00  0.00    -0.271 OA
HETATM   18  N   MEZ     1     -18.392 -15.763 -13.655  1.00  0.00    -0.344 N 
HETATM   19  H   MEZ     1     -17.721 -16.389 -14.094  1.00  0.00     0.163 HD
BRANCH  18  20
HETATM   20  CA  MEZ     1     -18.413 -15.643 -12.199  1.00  0.00     0.199 A 
HETATM   21  C   MEZ     1     -19.212 -16.684 -11.402  1.00  0.00     0.160 A 
HETATM   22  S   MEZ     1     -19.778 -18.166 -12.314  1.00  0.00    -0.135 SA
HETATM   23  N   MEZ     1     -17.942 -17.116 -10.812  1.00  0.00    -0.219 NA
HETATM   24  C   MEZ     1     -18.962 -19.289 -11.073  1.00  0.00     0.029 C 
HETATM   25  CA  MEZ     1     -17.668 -18.534 -10.694  1.00  0.00     0.182 C 
HETATM   26  C   MEZ     1     -18.649 -20.628 -11.744  1.00  0.00     0.029 C 
HETATM   27  C   MEZ     1     -19.940 -19.500  -9.910  1.00  0.00     0.029 C 
HETATM   28  C   MEZ     1     -17.169 -16.221 -11.494  1.00  0.00     0.227 A 
HETATM   29  O   MEZ     1     -15.973 -16.069 -11.583  1.00  0.00    -0.277 OA
BRANCH  25  30
HETATM   30  C   MEZ     1     -17.172 -18.774  -9.303  1.00  0.00     0.160 C 
HETATM   31  OXT MEZ     1     -16.804 -19.854  -8.865  1.00  0.00    -0.649 OA
BRANCH  30  32
HETATM   32  O   MEZ     1     -17.186 -17.624  -8.585  1.00  0.00    -0.775 OA
HETATM   33  H   MEZ     1     -16.549 -17.651  -7.840  1.00  0.00     0.167 HD
ENDBRANCH  30  32
ENDBRANCH  25  30
ENDBRANCH  18  20
ENDBRANCH   1  16
BRANCH   1  34
HETATM   34  C   MEZ     1     -18.754 -14.167 -16.778  1.00  0.00    -0.026 A 
HETATM   35  C   MEZ     1     -17.454 -13.660 -16.790  1.00  0.00     0.010 A 
HETATM   36  C   MEZ     1     -17.156 -12.526 -17.545  1.00  0.00     0.001 A 
HETATM   37  C   MEZ     1     -18.156 -11.898 -18.285  1.00  0.00     0.000 A 
HETATM   38  C   MEZ     1     -19.455 -12.404 -18.272  1.00  0.00     0.001 A 
HETATM   39  C   MEZ     1     -19.755 -13.539 -17.518  1.00  0.00     0.010 A 
ENDBRANCH   1  34
TORSDOF 7
ENDMDL
