MODEL 1
REMARK VINA RESULT:      -4.5      0.000      0.000
REMARK  13 active torsions:
REMARK  status: ('A' for Active; 'I' for Inactive)
REMARK    1  A    between atoms: O_1  and  P_2 
REMARK    2  A    between atoms: O_1  and  C2_12 
REMARK    3  A    between atoms: P_2  and  O2_4 
REMARK    4  A    between atoms: P_2  and  O3_10 
REMARK    5  A    between atoms: O2_4  and  C_5 
REMARK    6  A    between atoms: C_5  and  C1_6 
REMARK    7  A    between atoms: C1_6  and  N_7 
REMARK    8  A    between atoms: C2_12  and  C3_13 
REMARK    9  A    between atoms: C3_13  and  O4_14 
REMARK   10  A    between atoms: C3_13  and  C6_18 
REMARK   11  A    between atoms: O4_14  and  C4_15 
REMARK   12  A    between atoms: C6_18  and  O6_19 
REMARK   13  A    between atoms: O6_19  and  C7_20 
ROOT
ATOM      1  O   EA1 Z   1      65.775  78.497  42.185  1.00  0.00    -0.294 OA
ENDROOT
BRANCH   1   2
ATOM      2  P   EA1 Z   1      67.329  78.427  41.730  1.00  0.00     0.393 P 
ATOM      3  O1  EA1 Z   1      68.233  77.723  42.701  1.00  0.00    -0.631 OA
BRANCH   2   4
ATOM      4  O2  EA1 Z   1      67.298  77.785  40.245  1.00  0.00    -0.295 OA
BRANCH   4   5
ATOM      5  C   EA1 Z   1      67.017  78.606  39.123  1.00  0.00     0.210 C 
BRANCH   5   6
ATOM      6  C1  EA1 Z   1      66.396  77.746  38.034  1.00  0.00     0.293 C 
BRANCH   6   7
ATOM      7  N   EA1 Z   1      65.369  78.488  37.317  1.00  0.00     0.080 N 
ATOM      8  H   EA1 Z   1      64.480  78.406  37.808  1.00  0.00     0.312 HD
ATOM      9  H1  EA1 Z   1      65.606  79.479  37.316  1.00  0.00     0.312 HD
ENDBRANCH   6   7
ENDBRANCH   5   6
ENDBRANCH   4   5
ENDBRANCH   2   4
BRANCH   2  10
ATOM     10  O3  EA1 Z   1      67.707  79.983  41.484  1.00  0.00    -0.307 OA
ATOM     11  H2  EA1 Z   1      68.110  80.241  40.629  1.00  0.00     0.222 HD
ENDBRANCH   2  10
ENDBRANCH   1   2
BRANCH   1  12
ATOM     12  C2  EA1 Z   1      65.097  79.738  42.080  1.00  0.00     0.215 C 
BRANCH  12  13
ATOM     13  C3  EA1 Z   1      63.618  79.499  41.802  1.00  0.00     0.180 C 
BRANCH  13  14
ATOM     14  O4  EA1 Z   1      63.471  79.049  40.454  1.00  0.00    -0.312 OA
BRANCH  14  15
ATOM     15  C4  EA1 Z   1      63.180  77.725  40.305  1.00  0.00     0.255 C 
ATOM     16  O5  EA1 Z   1      63.494  77.017  39.357  1.00  0.00    -0.266 OA
ATOM     17  C5  EA1 Z   1      62.407  77.243  41.494  1.00  0.00     0.126 C 
ENDBRANCH  14  15
ENDBRANCH  13  14
BRANCH  13  18
ATOM     18  C6  EA1 Z   1      62.807  80.779  41.962  1.00  0.00     0.213 C 
BRANCH  18  19
ATOM     19  O6  EA1 Z   1      63.573  81.876  41.476  1.00  0.00    -0.319 OA
BRANCH  19  20
ATOM     20  C7  EA1 Z   1      63.376  83.069  42.115  1.00  0.00     0.254 C 
ATOM     21  O7  EA1 Z   1      62.963  83.215  43.256  1.00  0.00    -0.266 OA
ATOM     22  C8  EA1 Z   1      63.745  84.199  41.202  1.00  0.00     0.126 C 
ENDBRANCH  19  20
ENDBRANCH  18  19
ENDBRANCH  13  18
ENDBRANCH  12  13
ENDBRANCH   1  12
TORSDOF 13
ENDMDL
