@<TRIPOS>MOLECULE
*****
 29 32 0 0 0
SMALL
GASTEIGER

@<TRIPOS>ATOM
      1  C1       -36.7988   -6.5231   43.4032 C.3     1  LEV1        0.0200
      2  N1       -37.1274   -5.9783   41.0019 N.3     1  LEV1       -0.2705
      3  O1       -39.6571   -5.6402   42.3900 O.3     1  LEV1       -0.3520
      4  C2       -37.5293   -6.8886   42.1020 C.3     1  LEV1        0.0874
      5  N2       -41.2671   -3.2983   41.8866 N.3     1  LEV1       -0.2672
      6  O2       -36.3642   -3.8942   37.3807 O.3     1  LEV1       -0.3842
      7  C3       -39.0601   -6.9647   42.3211 C.3     1  LEV1        0.1580
      8  N3       -42.8865   -1.3990   43.3773 N.3     1  LEV1       -0.2691
      9  O3       -33.7718   -5.5571   37.5489 O.3     1  LEV1       -0.3602
     10  C4       -39.1427   -4.6148   41.4900 C.3     1  LEV1        0.1470
     11  O4       -35.5412   -6.8178   36.7723 O.3     1  LEV1       -0.3602
     12  C5       -38.2600   -5.2440   40.3894 C.3     1  LEV1        0.0886
     13  C6       -36.3184   -6.6811   39.9866 C.3     1  LEV1        0.0796
     14  C7       -35.7552   -5.6895   38.9486 C.3     1  LEV1        0.0988
     15  C8       -36.8926   -4.8646   38.2925 C.3     1  LEV1        0.1181
     16  C9       -37.7674   -4.1914   39.3709 C.3     1  LEV1        0.0470
     17  C10      -38.9642   -3.4415   38.7500 C.3     1  LEV1        0.0406
     18  C11      -39.8304   -2.7743   39.8362 C.3     1  LEV1        0.1780
     19  C12      -40.3171   -3.8209   40.8729 C.3     1  LEV1        0.1191
     20  C13      -40.6448   -2.4021   42.8881 C.3     1  LEV1        0.0898
     21  C14      -41.6655   -1.9886   43.9702 C.3     1  LEV1        0.0897
     22  C15      -43.4946   -2.2858   42.3605 C.3     1  LEV1        0.0897
     23  C16      -42.4762   -2.7048   41.2772 C.3     1  LEV1        0.0898
     24  C17      -42.6462   -0.0425   42.8554 C.3     1  LEV1        0.0897
     25  C18      -34.8334   -6.4182   37.9443 C.3     1  LEV1        0.2320
     26  F1       -39.1317   -1.7816   40.4200 F       1  LEV1       -0.2358
     27  H6       -35.6690   -4.3300   36.8450 H       1  LEV1        0.2103
     28  H12      -33.1320   -6.0900   37.0460 H       1  LEV1        0.2129
     29  H20      -35.9230   -6.0090   36.3790 H       1  LEV1        0.2129
@<TRIPOS>BOND
     1    29    11    1
     2    27     6    1
     3    11    25    1
     4    28     9    1
     5     6    15    1
     6     9    25    1
     7    25    14    1
     8    15    14    1
     9    15    16    1
    10    17    16    1
    11    17    18    1
    12    14    13    1
    13    16    12    1
    14    18    26    1
    15    18    19    1
    16    13     2    1
    17    12     2    1
    18    12    10    1
    19    19    10    1
    20    19     5    1
    21     2     4    1
    22    23     5    1
    23    23    22    1
    24    10     3    1
    25     5    20    1
    26     4     7    1
    27     4     1    1
    28    22     8    1
    29     7     3    1
    30    20    21    1
    31    24     8    1
    32     8    21    1
