@<TRIPOS>MOLECULE
*****
   37    40     1     0     0
SMALL
bcc


@<TRIPOS>ATOM
      1 C9         -53.6960    -7.6520    -9.5190 c2         1 VIA      -0.222000
      2 C10        -54.0010    -6.9720   -10.7180 c2         1 VIA       0.320100
      3 C11        -53.0160    -6.2360   -11.3790 c1         1 VIA      -0.285000
      4 C12        -51.7170    -6.1840   -10.8880 c1         1 VIA       0.156000
      5 C13        -51.4040    -6.8340    -9.7000 c2         1 VIA      -0.362100
      6 C14        -52.3940    -7.5390    -9.0210 c1         1 VIA      -0.144000
      7 C7         -54.6060    -8.4360    -8.7790 c2         1 VIA       0.291000
      8 N3         -54.2970    -8.8130    -7.5060 n2         1 VIA      -0.150000
      9 C6         -55.2860    -9.5010    -6.8980 c2         1 VIA       0.021700
     10 C4         -55.1870   -10.4270    -5.8130 c2         1 VIA       0.243300
     11 C5         -56.2040   -10.2430    -7.6950 c2         1 VIA      -0.227300
     12 N1         -56.0370   -11.5200    -5.8530 n2         1 VIA      -0.189000
     13 N2         -56.6520   -11.3710    -7.0560 na         1 VIA      -0.004400
     14 C22        -57.5980   -12.3530    -7.5690 c1         1 VIA       0.447700
     15 C8         -56.4270    -9.7100    -9.0570 c          1 VIA       0.357100
     16 N4         -55.7550    -8.8800    -9.3860 n2         1 VIA      -0.124000
     17 O1         -57.1860   -10.1620    -9.8900 o          1 VIA      -0.314100
     18 C3         -54.5260    -9.9890    -4.5360 c1         1 VIA      -0.093300
     19 C2         -55.2350    -8.7120    -4.0410 c2         1 VIA      -0.117900
     20 C1         -54.6070    -8.1630    -2.7510 c3         1 VIA      -0.082900
     21 O4         -55.2780    -6.9060   -11.2360 os         1 VIA      -0.127700
     22 C20        -56.0310    -5.6790   -11.1210 c1         1 VIA      -0.137400
     23 C21        -56.6610    -5.6020    -9.7210 c1         1 VIA       0.055000
     24 S1         -49.7480    -6.8680    -9.1050 sy         1 VIA       1.626800
     25 O2         -49.2350    -7.9490    -9.9010 o          1 VIA      -0.651800
     26 O3         -49.1470    -5.6060    -9.4310 o          1 VIA      -0.651800
     27 N5         -49.3140    -7.2410    -7.5710 n3         1 VIA       0.308300
     28 C15        -49.9710    -6.4550    -6.5050 c1         1 VIA      -0.342700
     29 C16        -49.2700    -6.6610    -5.1460 c1         1 VIA       0.108800
     30 N6         -49.2140    -8.0940    -4.7960 n3         1 VIA      -0.233400
     31 C17        -48.5370    -8.8770    -5.8500 c1         1 VIA       0.108800
     32 C19        -48.5560    -8.2890    -3.4970 c1         1 VIA       0.356800
     33 C18        -49.2270    -8.6770    -7.2140 c1         1 VIA      -0.342700
     34 H22A       -56.3020    -8.8970    -3.8930 ha         1 VIA       0.206000
     35 H13        -53.5350    -7.9990    -2.8830 hc         1 VIA       0.065367
     36 H12        -55.0710    -7.2100    -2.4860 hc         1 VIA       0.065367
     37 H11        -54.7570    -8.8610    -1.9240 hc         1 VIA       0.065367
@<TRIPOS>BOND
     1     3     4 ar  
     2     3     2 ar  
     3     4     5 ar  
     4    25    24 2   
     5    17    15 2   
     6    21     2 1   
     7    21    22 1   
     8     2     1 ar  
     9    26    24 2   
    10     5    24 1   
    11     5     6 ar  
    12    16    15 ar  
    13    16     7 ar  
    14    24    27 1   
    15     1     6 ar  
    16     1     7 1   
    17    22    23 1   
    18    15    11 ar  
    19     7     8 ar  
    20    27    33 1   
    21    27    28 1   
    22    11    13 ar  
    23    11     9 ar  
    24    14    13 1   
    25     8     9 ar  
    26    33    31 1   
    27    13    12 ar  
    28     9    10 ar  
    29    28    29 1   
    30    31    30 1   
    31    12    10 ar  
    32    10    18 1   
    33    29    30 1   
    34    30    32 1   
    35    18    19 1   
    36    34    19 1   
    37    19    20 1   
    38    36    20 1   
    39    20    35 1   
    40    20    37 1   
@<TRIPOS>SUBSTRUCTURE
     1 VIA         1 TEMP              0 ****  ****    0 ROOT
