REMARK  8 active torsions:
REMARK  status: ('A' for Active; 'I' for Inactive)
REMARK    1  A    between atoms: P_1  and  O3'_9 
REMARK    2  A    between atoms: PA_2  and  O5'_5 
REMARK    3  A    between atoms: PA_2  and  O3A_23 
REMARK    4  A    between atoms: PB_3  and  O3A_23 
REMARK    5  A    between atoms: C5'_4  and  O5'_5 
REMARK    6  A    between atoms: C5'_4  and  C4'_6 
REMARK    7  A    between atoms: C3'_8  and  O3'_9 
REMARK    8  A    between atoms: C1'_12  and  N9_31 
ROOT
HETATM    1  C4' PAP A 125     -20.701 -40.686  44.677  1.00 30.66     0.178 C 
HETATM    2  O4' PAP A 125     -21.741 -41.648  44.473  1.00 30.64    -0.331 OA
HETATM    3  C3' PAP A 125     -20.173 -40.294  43.270  1.00 32.01     0.192 C 
HETATM    4  C2' PAP A 125     -21.352 -40.700  42.394  1.00 31.03     0.231 C 
HETATM    5  O2' PAP A 125     -20.936 -40.886  41.023  1.00 29.14    -0.216 OA
HETATM    6  C1' PAP A 125     -21.645 -42.033  43.111  1.00 29.59     0.241 C 
ENDROOT
BRANCH   1   7
HETATM    7  C5' PAP A 125     -21.342 -39.542  45.408  1.00 29.07     0.187 C 
BRANCH   7   8
HETATM    8  O5' PAP A 125     -20.282 -38.674  45.759  1.00 30.13    -0.268 OA
BRANCH   8   9
HETATM    9  PA  PAP A 125     -20.571 -37.121  46.154  1.00 31.22     0.419 P 
HETATM   10  O1A PAP A 125     -19.279 -36.554  46.641  1.00 32.37    -0.624 OA
HETATM   11  O2A PAP A 125     -21.252 -36.454  45.011  1.00 32.57    -0.624 OA
BRANCH   9  12
HETATM   12  O3A PAP A 125     -21.538 -37.210  47.573  1.00 29.92    -0.173 OA
BRANCH  12  13
HETATM   13  PB  PAP A 125     -23.123 -37.434  47.956  1.00 26.94     0.431 P 
HETATM   14  O1B PAP A 125     -23.146 -38.618  48.839  1.00 24.20    -0.616 OA
HETATM   15  O2B PAP A 125     -23.505 -36.145  48.626  1.00 26.86    -0.616 OA
HETATM   16  O3B PAP A 125     -23.804 -37.645  46.657  1.00 28.16    -0.616 OA
ENDBRANCH  12  13
ENDBRANCH   9  12
ENDBRANCH   8   9
ENDBRANCH   7   8
ENDBRANCH   1   7
BRANCH   3  17
HETATM   17  O3' PAP A 125     -18.987 -41.081  42.962  1.00 36.20    -0.261 OA
BRANCH  17  18
HETATM   18  P   PAP A 125     -17.435 -40.370  42.985  1.00 39.68     0.423 P 
HETATM   19  O1  PAP A 125     -16.843 -41.041  44.169  1.00 40.50    -0.617 OA
HETATM   20  O2  PAP A 125     -16.870 -40.784  41.676  1.00 39.38    -0.617 OA
HETATM   21  O3  PAP A 125     -17.653 -38.894  43.083  1.00 40.59    -0.617 OA
ENDBRANCH  17  18
ENDBRANCH   3  17
BRANCH   6  22
HETATM   22  N9  PAP A 125     -22.947 -42.675  42.819  1.00 29.22    -0.270 N 
HETATM   23  C4  PAP A 125     -24.238 -42.118  42.619  1.00 29.28     0.170 A 
HETATM   24  N3  PAP A 125     -24.653 -40.802  42.662  1.00 29.66    -0.205 NA
HETATM   25  C5  PAP A 125     -25.067 -43.206  42.369  1.00 29.93     0.155 A 
HETATM   26  C2  PAP A 125     -25.986 -40.713  42.440  1.00 28.29     0.202 A 
HETATM   27  N1  PAP A 125     -26.904 -41.660  42.194  1.00 27.66    -0.202 NA
HETATM   28  C6  PAP A 125     -26.486 -42.952  42.135  1.00 28.82     0.206 A 
HETATM   29  N6  PAP A 125     -27.351 -43.929  41.801  1.00 26.39    -0.125 N 
HETATM   30  N7  PAP A 125     -24.303 -44.416  42.416  1.00 30.19    -0.219 NA
HETATM   31  C8  PAP A 125     -23.089 -44.033  42.680  1.00 28.80     0.182 A 
ENDBRANCH   6  22
TORSDOF 8
