MODEL 1
REMARK VINA RESULT:    -5.886      0.000      0.000
REMARK INTER + INTRA:          -9.877
REMARK INTER:                  -8.638
REMARK INTRA:                  -1.239
REMARK UNBOUND:                -1.239
REMARK  8 active torsions:
REMARK  status: ('A' for Active; 'I' for Inactive)
REMARK    1  A    between atoms: P_1  and  O3'_9 
REMARK    2  A    between atoms: PA_2  and  O5'_5 
REMARK    3  A    between atoms: PA_2  and  O3A_23 
REMARK    4  A    between atoms: PB_3  and  O3A_23 
REMARK    5  A    between atoms: C5'_4  and  O5'_5 
REMARK    6  A    between atoms: C5'_4  and  C4'_6 
REMARK    7  A    between atoms: C3'_8  and  O3'_9 
REMARK    8  A    between atoms: C1'_12  and  N9_31 
ROOT
HETATM    1  C4' PAP A 125      39.832   2.930  25.018  1.00 30.66     0.178 C 
HETATM    2  O4' PAP A 125      39.060   1.725  24.986  1.00 30.64    -0.331 OA
HETATM    3  C3' PAP A 125      40.885   2.815  23.882  1.00 32.01     0.192 C 
HETATM    4  C2' PAP A 125      40.236   1.765  22.989  1.00 31.03     0.231 C 
HETATM    5  O2' PAP A 125      41.217   1.136  22.135  1.00 29.14    -0.216 OA
HETATM    6  C1' PAP A 125      39.765   0.841  24.130  1.00 29.59     0.241 C 
ENDROOT
BRANCH   1   7
HETATM    7  C5' PAP A 125      38.852   4.048  24.805  1.00 29.07     0.187 C 
BRANCH   7   8
HETATM    8  O5' PAP A 125      37.682   3.664  25.501  1.00 30.13    -0.268 OA
BRANCH   8   9
HETATM    9  PA  PAP A 125      36.215   3.811  24.810  1.00 31.22     0.419 P 
HETATM   10  O1A PAP A 125      36.430   3.780  23.334  1.00 32.37    -0.624 OA
HETATM   11  O2A PAP A 125      35.298   2.806  25.414  1.00 32.57    -0.624 OA
BRANCH   9  12
HETATM   12  O3A PAP A 125      35.753   5.438  25.121  1.00 29.92    -0.173 OA
BRANCH  12  13
HETATM   13  PB  PAP A 125      35.619   6.848  24.283  1.00 26.94     0.431 P 
HETATM   14  O1B PAP A 125      34.489   6.643  23.354  1.00 24.20    -0.616 OA
HETATM   15  O2B PAP A 125      35.370   7.869  25.357  1.00 26.86    -0.616 OA
HETATM   16  O3B PAP A 125      36.926   7.016  23.605  1.00 28.16    -0.616 OA
ENDBRANCH  12  13
ENDBRANCH   9  12
ENDBRANCH   8   9
ENDBRANCH   7   8
ENDBRANCH   1   7
BRANCH   3  17
HETATM   17  O3' PAP A 125      42.144   2.337  24.436  1.00 36.20    -0.261 OA
BRANCH  17  18
HETATM   18  P   PAP A 125      43.254   3.421  25.150  1.00 39.68     0.423 P 
HETATM   19  O1  PAP A 125      43.224   4.531  24.166  1.00 40.50    -0.617 OA
HETATM   20  O2  PAP A 125      42.620   3.719  26.458  1.00 39.38    -0.617 OA
HETATM   21  O3  PAP A 125      44.541   2.672  25.285  1.00 40.59    -0.617 OA
ENDBRANCH  17  18
ENDBRANCH   3  17
BRANCH   6  22
HETATM   22  N9  PAP A 125      38.771  -0.199  23.778  1.00 29.22    -0.270 N 
HETATM   23  C4  PAP A 125      38.919  -1.592  23.548  1.00 29.28     0.170 A 
HETATM   24  N3  PAP A 125      40.054  -2.379  23.567  1.00 29.66    -0.205 NA
HETATM   25  C5  PAP A 125      37.637  -2.052  23.269  1.00 29.93     0.155 A 
HETATM   26  C2  PAP A 125      39.751  -3.663  23.262  1.00 28.29     0.202 A 
HETATM   27  N1  PAP A 125      38.580  -4.247  22.968  1.00 27.66    -0.202 NA
HETATM   28  C6  PAP A 125      37.464  -3.471  22.968  1.00 28.82     0.206 A 
HETATM   29  N6  PAP A 125      36.253  -4.026  22.770  1.00 26.39    -0.125 N 
HETATM   30  N7  PAP A 125      36.711  -0.962  23.322  1.00 30.19    -0.219 NA
HETATM   31  C8  PAP A 125      37.435   0.076  23.622  1.00 28.80     0.182 A 
ENDBRANCH   6  22
TORSDOF 8
ENDMDL
MODEL 2
REMARK VINA RESULT:    -5.762      1.883      2.520
REMARK INTER + INTRA:          -9.696
REMARK INTER:                  -8.106
REMARK INTRA:                  -1.590
REMARK UNBOUND:                -1.239
REMARK  8 active torsions:
REMARK  status: ('A' for Active; 'I' for Inactive)
REMARK    1  A    between atoms: P_1  and  O3'_9 
REMARK    2  A    between atoms: PA_2  and  O5'_5 
REMARK    3  A    between atoms: PA_2  and  O3A_23 
REMARK    4  A    between atoms: PB_3  and  O3A_23 
REMARK    5  A    between atoms: C5'_4  and  O5'_5 
REMARK    6  A    between atoms: C5'_4  and  C4'_6 
REMARK    7  A    between atoms: C3'_8  and  O3'_9 
REMARK    8  A    between atoms: C1'_12  and  N9_31 
ROOT
HETATM    1  C4' PAP A 125      37.638   1.370  24.407  1.00 30.66     0.178 C 
HETATM    2  O4' PAP A 125      37.489  -0.045  24.254  1.00 30.64    -0.331 OA
HETATM    3  C3' PAP A 125      38.697   1.823  23.365  1.00 32.01     0.192 C 
HETATM    4  C2' PAP A 125      38.641   0.667  22.373  1.00 31.03     0.231 C 
HETATM    5  O2' PAP A 125      39.848   0.607  21.582  1.00 29.14    -0.216 OA
HETATM    6  C1' PAP A 125      38.565  -0.456  23.426  1.00 29.59     0.241 C 
ENDROOT
BRANCH   1   7
HETATM    7  C5' PAP A 125      36.277   1.953  24.158  1.00 29.07     0.187 C 
BRANCH   7   8
HETATM    8  O5' PAP A 125      36.506   3.272  23.703  1.00 30.13    -0.268 OA
BRANCH   8   9
HETATM    9  PA  PAP A 125      36.276   4.547  24.690  1.00 31.22     0.419 P 
HETATM   10  O1A PAP A 125      35.242   5.408  24.045  1.00 32.37    -0.624 OA
HETATM   11  O2A PAP A 125      36.023   4.046  26.069  1.00 32.57    -0.624 OA
BRANCH   9  12
HETATM   12  O3A PAP A 125      37.721   5.468  24.548  1.00 29.92    -0.173 OA
BRANCH  12  13
HETATM   13  PB  PAP A 125      38.148   7.022  24.215  1.00 26.94     0.431 P 
HETATM   14  O1B PAP A 125      39.554   7.141  24.654  1.00 24.20    -0.616 OA
HETATM   15  O2B PAP A 125      37.944   7.129  22.731  1.00 26.86    -0.616 OA
HETATM   16  O3B PAP A 125      37.205   7.854  24.999  1.00 28.16    -0.616 OA
ENDBRANCH  12  13
ENDBRANCH   9  12
ENDBRANCH   8   9
ENDBRANCH   7   8
ENDBRANCH   1   7
BRANCH   3  17
HETATM   17  O3' PAP A 125      40.002   1.908  24.007  1.00 36.20    -0.261 OA
BRANCH  17  18
HETATM   18  P   PAP A 125      40.866   3.380  24.038  1.00 39.68     0.423 P 
HETATM   19  O1  PAP A 125      40.229   4.098  22.906  1.00 40.50    -0.617 OA
HETATM   20  O2  PAP A 125      40.546   3.914  25.386  1.00 39.38    -0.617 OA
HETATM   21  O3  PAP A 125      42.309   3.020  23.884  1.00 40.59    -0.617 OA
ENDBRANCH  17  18
ENDBRANCH   3  17
BRANCH   6  22
HETATM   22  N9  PAP A 125      38.163  -1.797  22.942  1.00 29.22    -0.270 N 
HETATM   23  C4  PAP A 125      38.909  -2.818  22.295  1.00 29.28     0.170 A 
HETATM   24  N3  PAP A 125      40.234  -2.839  21.910  1.00 29.66    -0.205 NA
HETATM   25  C5  PAP A 125      38.004  -3.855  22.093  1.00 29.93     0.155 A 
HETATM   26  C2  PAP A 125      40.534  -4.007  21.293  1.00 28.29     0.202 A 
HETATM   27  N1  PAP A 125      39.778  -5.082  21.024  1.00 27.66    -0.202 NA
HETATM   28  C6  PAP A 125      38.478  -5.062  21.422  1.00 28.82     0.206 A 
HETATM   29  N6  PAP A 125      37.703  -6.151  21.258  1.00 26.39    -0.125 N 
HETATM   30  N7  PAP A 125      36.720  -3.481  22.604  1.00 30.19    -0.219 NA
HETATM   31  C8  PAP A 125      36.886  -2.282  23.079  1.00 28.80     0.182 A 
ENDBRANCH   6  22
TORSDOF 8
ENDMDL
MODEL 3
REMARK VINA RESULT:    -5.646      2.855      6.307
REMARK INTER + INTRA:          -9.525
REMARK INTER:                  -8.005
REMARK INTRA:                  -1.520
REMARK UNBOUND:                -1.239
REMARK  8 active torsions:
REMARK  status: ('A' for Active; 'I' for Inactive)
REMARK    1  A    between atoms: P_1  and  O3'_9 
REMARK    2  A    between atoms: PA_2  and  O5'_5 
REMARK    3  A    between atoms: PA_2  and  O3A_23 
REMARK    4  A    between atoms: PB_3  and  O3A_23 
REMARK    5  A    between atoms: C5'_4  and  O5'_5 
REMARK    6  A    between atoms: C5'_4  and  C4'_6 
REMARK    7  A    between atoms: C3'_8  and  O3'_9 
REMARK    8  A    between atoms: C1'_12  and  N9_31 
ROOT
HETATM    1  C4' PAP A 125      37.196   5.166  22.527  1.00 30.66     0.178 C 
HETATM    2  O4' PAP A 125      37.369   3.747  22.449  1.00 30.64    -0.331 OA
HETATM    3  C3' PAP A 125      36.747   5.481  23.980  1.00 32.01     0.192 C 
HETATM    4  C2' PAP A 125      37.230   4.234  24.710  1.00 31.03     0.231 C 
HETATM    5  O2' PAP A 125      36.523   4.061  25.958  1.00 29.14    -0.216 OA
HETATM    6  C1' PAP A 125      36.788   3.224  23.633  1.00 29.59     0.241 C 
ENDROOT
BRANCH   1   7
HETATM    7  C5' PAP A 125      38.530   5.758  22.178  1.00 29.07     0.187 C 
BRANCH   7   8
HETATM    8  O5' PAP A 125      39.093   4.888  21.217  1.00 30.13    -0.268 OA
BRANCH   8   9
HETATM    9  PA  PAP A 125      40.644   5.053  20.747  1.00 31.22     0.419 P 
HETATM   10  O1A PAP A 125      40.684   6.202  19.796  1.00 32.37    -0.624 OA
HETATM   11  O2A PAP A 125      41.508   5.103  21.957  1.00 32.57    -0.624 OA
BRANCH   9  12
HETATM   12  O3A PAP A 125      40.939   3.685  19.748  1.00 29.92    -0.173 OA
BRANCH  12  13
HETATM   13  PB  PAP A 125      40.095   2.402  19.156  1.00 26.94     0.431 P 
HETATM   14  O1B PAP A 125      38.879   2.984  18.550  1.00 24.20    -0.616 OA
HETATM   15  O2B PAP A 125      41.048   1.781  18.175  1.00 26.86    -0.616 OA
HETATM   16  O3B PAP A 125      39.823   1.547  20.334  1.00 28.16    -0.616 OA
ENDBRANCH  12  13
ENDBRANCH   9  12
ENDBRANCH   8   9
ENDBRANCH   7   8
ENDBRANCH   1   7
BRANCH   3  17
HETATM   17  O3' PAP A 125      35.295   5.593  24.024  1.00 36.20    -0.261 OA
BRANCH  17  18
HETATM   18  P   PAP A 125      34.538   7.121  24.113  1.00 39.68     0.423 P 
HETATM   19  O1  PAP A 125      35.319   7.751  25.207  1.00 40.50    -0.617 OA
HETATM   20  O2  PAP A 125      34.781   7.682  22.760  1.00 39.38    -0.617 OA
HETATM   21  O3  PAP A 125      33.091   6.855  24.381  1.00 40.59    -0.617 OA
ENDBRANCH  17  18
ENDBRANCH   3  17
BRANCH   6  22
HETATM   22  N9  PAP A 125      37.339   1.854  23.737  1.00 29.22    -0.270 N 
HETATM   23  C4  PAP A 125      38.680   1.386  23.755  1.00 29.28     0.170 A 
HETATM   24  N3  PAP A 125      39.866   2.087  23.656  1.00 29.66    -0.205 NA
HETATM   25  C5  PAP A 125      38.581   0.005  23.883  1.00 29.93     0.155 A 
HETATM   26  C2  PAP A 125      40.924   1.243  23.688  1.00 28.29     0.202 A 
HETATM   27  N1  PAP A 125      40.984  -0.092  23.801  1.00 27.66    -0.202 NA
HETATM   28  C6  PAP A 125      39.815  -0.775  23.916  1.00 28.82     0.206 A 
HETATM   29  N6  PAP A 125      39.825  -2.106  24.123  1.00 26.39    -0.125 N 
HETATM   30  N7  PAP A 125      37.202  -0.376  23.942  1.00 30.19    -0.219 NA
HETATM   31  C8  PAP A 125      36.543   0.742  23.853  1.00 28.80     0.182 A 
ENDBRANCH   6  22
TORSDOF 8
ENDMDL
MODEL 4
REMARK VINA RESULT:    -5.597      2.118      6.151
REMARK INTER + INTRA:          -9.453
REMARK INTER:                  -7.896
REMARK INTRA:                  -1.557
REMARK UNBOUND:                -1.239
REMARK  8 active torsions:
REMARK  status: ('A' for Active; 'I' for Inactive)
REMARK    1  A    between atoms: P_1  and  O3'_9 
REMARK    2  A    between atoms: PA_2  and  O5'_5 
REMARK    3  A    between atoms: PA_2  and  O3A_23 
REMARK    4  A    between atoms: PB_3  and  O3A_23 
REMARK    5  A    between atoms: C5'_4  and  O5'_5 
REMARK    6  A    between atoms: C5'_4  and  C4'_6 
REMARK    7  A    between atoms: C3'_8  and  O3'_9 
REMARK    8  A    between atoms: C1'_12  and  N9_31 
ROOT
HETATM    1  C4' PAP A 125      37.657   6.197  23.649  1.00 30.66     0.178 C 
HETATM    2  O4' PAP A 125      38.202   5.076  22.945  1.00 30.64    -0.331 OA
HETATM    3  C3' PAP A 125      36.649   5.627  24.684  1.00 32.01     0.192 C 
HETATM    4  C2' PAP A 125      37.136   4.188  24.802  1.00 31.03     0.231 C 
HETATM    5  O2' PAP A 125      36.095   3.332  25.322  1.00 29.14    -0.216 OA
HETATM    6  C1' PAP A 125      37.386   3.970  23.296  1.00 29.59     0.241 C 
ENDROOT
BRANCH   1   7
HETATM    7  C5' PAP A 125      38.829   6.889  24.283  1.00 29.07     0.187 C 
BRANCH   7   8
HETATM    8  O5' PAP A 125      39.976   6.247  23.762  1.00 30.13    -0.268 OA
BRANCH   8   9
HETATM    9  PA  PAP A 125      41.468   6.679  24.249  1.00 31.22     0.419 P 
HETATM   10  O1A PAP A 125      42.357   6.577  23.054  1.00 32.37    -0.624 OA
HETATM   11  O2A PAP A 125      41.382   7.985  24.958  1.00 32.57    -0.624 OA
BRANCH   9  12
HETATM   12  O3A PAP A 125      41.986   5.384  25.255  1.00 29.92    -0.173 OA
BRANCH  12  13
HETATM   13  PB  PAP A 125      41.859   3.744  25.291  1.00 26.94     0.431 P 
HETATM   14  O1B PAP A 125      42.357   3.286  23.978  1.00 24.20    -0.616 OA
HETATM   15  O2B PAP A 125      42.720   3.354  26.459  1.00 26.86    -0.616 OA
HETATM   16  O3B PAP A 125      40.418   3.476  25.509  1.00 28.16    -0.616 OA
ENDBRANCH  12  13
ENDBRANCH   9  12
ENDBRANCH   8   9
ENDBRANCH   7   8
ENDBRANCH   1   7
BRANCH   3  17
HETATM   17  O3' PAP A 125      35.302   5.688  24.132  1.00 36.20    -0.261 OA
BRANCH  17  18
HETATM   18  P   PAP A 125      34.464   7.172  24.032  1.00 39.68     0.423 P 
HETATM   19  O1  PAP A 125      33.069   6.715  24.245  1.00 40.50    -0.617 OA
HETATM   20  O2  PAP A 125      35.051   7.951  25.152  1.00 39.38    -0.617 OA
HETATM   21  O3  PAP A 125      34.791   7.747  22.691  1.00 40.59    -0.617 OA
ENDBRANCH  17  18
ENDBRANCH   3  17
BRANCH   6  22
HETATM   22  N9  PAP A 125      38.192   2.786  22.919  1.00 29.22    -0.270 N 
HETATM   23  C4  PAP A 125      37.971   1.400  23.134  1.00 29.28     0.170 A 
HETATM   24  N3  PAP A 125      36.937   0.757  23.784  1.00 29.66    -0.205 NA
HETATM   25  C5  PAP A 125      39.059   0.765  22.547  1.00 29.93     0.155 A 
HETATM   26  C2  PAP A 125      37.132  -0.583  23.785  1.00 28.29     0.202 A 
HETATM   27  N1  PAP A 125      38.121  -1.331  23.272  1.00 27.66    -0.202 NA
HETATM   28  C6  PAP A 125      39.128  -0.693  22.617  1.00 28.82     0.206 A 
HETATM   29  N6  PAP A 125      40.095  -1.403  22.007  1.00 26.39    -0.125 N 
HETATM   30  N7  PAP A 125      39.941   1.741  21.980  1.00 30.19    -0.219 NA
HETATM   31  C8  PAP A 125      39.376   2.884  22.233  1.00 28.80     0.182 A 
ENDBRANCH   6  22
TORSDOF 8
ENDMDL
MODEL 5
REMARK VINA RESULT:    -5.572      1.577      5.362
REMARK INTER + INTRA:          -9.417
REMARK INTER:                  -7.919
REMARK INTRA:                  -1.498
REMARK UNBOUND:                -1.239
REMARK  8 active torsions:
REMARK  status: ('A' for Active; 'I' for Inactive)
REMARK    1  A    between atoms: P_1  and  O3'_9 
REMARK    2  A    between atoms: PA_2  and  O5'_5 
REMARK    3  A    between atoms: PA_2  and  O3A_23 
REMARK    4  A    between atoms: PB_3  and  O3A_23 
REMARK    5  A    between atoms: C5'_4  and  O5'_5 
REMARK    6  A    between atoms: C5'_4  and  C4'_6 
REMARK    7  A    between atoms: C3'_8  and  O3'_9 
REMARK    8  A    between atoms: C1'_12  and  N9_31 
ROOT
HETATM    1  C4' PAP A 125      38.611   2.630  22.498  1.00 30.66     0.178 C 
HETATM    2  O4' PAP A 125      38.428   1.228  22.275  1.00 30.64    -0.331 OA
HETATM    3  C3' PAP A 125      38.105   2.923  23.937  1.00 32.01     0.192 C 
HETATM    4  C2' PAP A 125      38.180   1.534  24.560  1.00 31.03     0.231 C 
HETATM    5  O2' PAP A 125      37.324   1.443  25.720  1.00 29.14    -0.216 OA
HETATM    6  C1' PAP A 125      37.614   0.773  23.344  1.00 29.59     0.241 C 
ENDROOT
BRANCH   1   7
HETATM    7  C5' PAP A 125      40.080   2.883  22.325  1.00 29.07     0.187 C 
BRANCH   7   8
HETATM    8  O5' PAP A 125      40.351   4.064  23.052  1.00 30.13    -0.268 OA
BRANCH   8   9
HETATM    9  PA  PAP A 125      41.744   4.235  23.879  1.00 31.22     0.419 P 
HETATM   10  O1A PAP A 125      42.805   4.540  22.874  1.00 32.37    -0.624 OA
HETATM   11  O2A PAP A 125      41.526   5.197  24.994  1.00 32.57    -0.624 OA
BRANCH   9  12
HETATM   12  O3A PAP A 125      42.128   2.645  24.408  1.00 29.92    -0.173 OA
BRANCH  12  13
HETATM   13  PB  PAP A 125      42.735   1.922  25.757  1.00 26.94     0.431 P 
HETATM   14  O1B PAP A 125      42.849   0.490  25.413  1.00 24.20    -0.616 OA
HETATM   15  O2B PAP A 125      44.047   2.623  25.967  1.00 26.86    -0.616 OA
HETATM   16  O3B PAP A 125      41.742   2.203  26.821  1.00 28.16    -0.616 OA
ENDBRANCH  12  13
ENDBRANCH   9  12
ENDBRANCH   8   9
ENDBRANCH   7   8
ENDBRANCH   1   7
BRANCH   3  17
HETATM   17  O3' PAP A 125      36.733   3.406  23.879  1.00 36.20    -0.261 OA
BRANCH  17  18
HETATM   18  P   PAP A 125      36.287   4.869  24.637  1.00 39.68     0.423 P 
HETATM   19  O1  PAP A 125      35.053   5.204  23.884  1.00 40.50    -0.617 OA
HETATM   20  O2  PAP A 125      36.073   4.451  26.046  1.00 39.38    -0.617 OA
HETATM   21  O3  PAP A 125      37.450   5.795  24.476  1.00 40.59    -0.617 OA
ENDBRANCH  17  18
ENDBRANCH   3  17
BRANCH   6  22
HETATM   22  N9  PAP A 125      37.788  -0.697  23.338  1.00 29.22    -0.270 N 
HETATM   23  C4  PAP A 125      38.936  -1.502  23.567  1.00 29.28     0.170 A 
HETATM   24  N3  PAP A 125      40.237  -1.133  23.843  1.00 29.66    -0.205 NA
HETATM   25  C5  PAP A 125      38.490  -2.813  23.441  1.00 29.93     0.155 A 
HETATM   26  C2  PAP A 125      41.029  -2.225  23.964  1.00 28.29     0.202 A 
HETATM   27  N1  PAP A 125      40.748  -3.533  23.865  1.00 27.66    -0.202 NA
HETATM   28  C6  PAP A 125      39.462  -3.890  23.610  1.00 28.82     0.206 A 
HETATM   29  N6  PAP A 125      39.111  -5.191  23.592  1.00 26.39    -0.125 N 
HETATM   30  N7  PAP A 125      37.091  -2.820  23.138  1.00 30.19    -0.219 NA
HETATM   31  C8  PAP A 125      36.754  -1.565  23.093  1.00 28.80     0.182 A 
ENDBRANCH   6  22
TORSDOF 8
ENDMDL
MODEL 6
REMARK VINA RESULT:    -5.569      3.805      6.626
REMARK INTER + INTRA:          -9.412
REMARK INTER:                  -7.819
REMARK INTRA:                  -1.594
REMARK UNBOUND:                -1.239
REMARK  8 active torsions:
REMARK  status: ('A' for Active; 'I' for Inactive)
REMARK    1  A    between atoms: P_1  and  O3'_9 
REMARK    2  A    between atoms: PA_2  and  O5'_5 
REMARK    3  A    between atoms: PA_2  and  O3A_23 
REMARK    4  A    between atoms: PB_3  and  O3A_23 
REMARK    5  A    between atoms: C5'_4  and  O5'_5 
REMARK    6  A    between atoms: C5'_4  and  C4'_6 
REMARK    7  A    between atoms: C3'_8  and  O3'_9 
REMARK    8  A    between atoms: C1'_12  and  N9_31 
ROOT
HETATM    1  C4' PAP A 125      40.238   0.151  23.478  1.00 30.66     0.178 C 
HETATM    2  O4' PAP A 125      39.449   1.214  24.023  1.00 30.64    -0.331 OA
HETATM    3  C3' PAP A 125      39.251  -0.980  23.080  1.00 32.01     0.192 C 
HETATM    4  C2' PAP A 125      37.947  -0.200  22.964  1.00 31.03     0.231 C 
HETATM    5  O2' PAP A 125      36.808  -1.080  23.077  1.00 29.14    -0.216 OA
HETATM    6  C1' PAP A 125      38.156   0.666  24.223  1.00 29.59     0.241 C 
ENDROOT
BRANCH   1   7
HETATM    7  C5' PAP A 125      40.964   0.743  22.305  1.00 29.07     0.187 C 
BRANCH   7   8
HETATM    8  O5' PAP A 125      40.998   2.137  22.543  1.00 30.13    -0.268 OA
BRANCH   8   9
HETATM    9  PA  PAP A 125      42.415   2.926  22.681  1.00 31.22     0.419 P 
HETATM   10  O1A PAP A 125      43.478   1.983  22.224  1.00 32.37    -0.624 OA
HETATM   11  O2A PAP A 125      42.298   4.246  22.003  1.00 32.57    -0.624 OA
BRANCH   9  12
HETATM   12  O3A PAP A 125      42.678   3.046  24.376  1.00 29.92    -0.173 OA
BRANCH  12  13
HETATM   13  PB  PAP A 125      41.843   3.533  25.708  1.00 26.94     0.431 P 
HETATM   14  O1B PAP A 125      40.574   4.085  25.191  1.00 24.20    -0.616 OA
HETATM   15  O2B PAP A 125      41.697   2.271  26.509  1.00 26.86    -0.616 OA
HETATM   16  O3B PAP A 125      42.713   4.543  26.356  1.00 28.16    -0.616 OA
ENDBRANCH  12  13
ENDBRANCH   9  12
ENDBRANCH   8   9
ENDBRANCH   7   8
ENDBRANCH   1   7
BRANCH   3  17
HETATM   17  O3' PAP A 125      39.188  -1.965  24.150  1.00 36.20    -0.261 OA
BRANCH  17  18
HETATM   18  P   PAP A 125      39.634  -3.589  23.872  1.00 39.68     0.423 P 
HETATM   19  O1  PAP A 125      39.842  -4.060  25.264  1.00 40.50    -0.617 OA
HETATM   20  O2  PAP A 125      38.436  -4.142  23.190  1.00 39.38    -0.617 OA
HETATM   21  O3  PAP A 125      40.838  -3.546  22.986  1.00 40.59    -0.617 OA
ENDBRANCH  17  18
ENDBRANCH   3  17
BRANCH   6  22
HETATM   22  N9  PAP A 125      37.276   1.848  24.372  1.00 29.22    -0.270 N 
HETATM   23  C4  PAP A 125      37.227   3.071  23.652  1.00 29.28     0.170 A 
HETATM   24  N3  PAP A 125      38.012   3.519  22.608  1.00 29.66    -0.205 NA
HETATM   25  C5  PAP A 125      36.189   3.792  24.232  1.00 29.93     0.155 A 
HETATM   26  C2  PAP A 125      37.642   4.766  22.231  1.00 28.29     0.202 A 
HETATM   27  N1  PAP A 125      36.679   5.577  22.694  1.00 27.66    -0.202 NA
HETATM   28  C6  PAP A 125      35.898   5.124  23.710  1.00 28.82     0.206 A 
HETATM   29  N6  PAP A 125      34.860   5.863  24.148  1.00 26.39    -0.125 N 
HETATM   30  N7  PAP A 125      35.607   3.029  25.295  1.00 30.19    -0.219 NA
HETATM   31  C8  PAP A 125      36.284   1.919  25.318  1.00 28.80     0.182 A 
ENDBRANCH   6  22
TORSDOF 8
ENDMDL
MODEL 7
REMARK VINA RESULT:    -5.563      3.973      7.402
REMARK INTER + INTRA:          -9.404
REMARK INTER:                  -7.752
REMARK INTRA:                  -1.652
REMARK UNBOUND:                -1.239
REMARK  8 active torsions:
REMARK  status: ('A' for Active; 'I' for Inactive)
REMARK    1  A    between atoms: P_1  and  O3'_9 
REMARK    2  A    between atoms: PA_2  and  O5'_5 
REMARK    3  A    between atoms: PA_2  and  O3A_23 
REMARK    4  A    between atoms: PB_3  and  O3A_23 
REMARK    5  A    between atoms: C5'_4  and  O5'_5 
REMARK    6  A    between atoms: C5'_4  and  C4'_6 
REMARK    7  A    between atoms: C3'_8  and  O3'_9 
REMARK    8  A    between atoms: C1'_12  and  N9_31 
ROOT
HETATM    1  C4' PAP A 125      36.759   3.077  24.888  1.00 30.66     0.178 C 
HETATM    2  O4' PAP A 125      38.056   2.762  25.406  1.00 30.64    -0.331 OA
HETATM    3  C3' PAP A 125      36.951   4.250  23.888  1.00 32.01     0.192 C 
HETATM    4  C2' PAP A 125      38.433   4.113  23.562  1.00 31.03     0.231 C 
HETATM    5  O2' PAP A 125      38.963   5.352  23.041  1.00 29.14    -0.216 OA
HETATM    6  C1' PAP A 125      38.899   3.828  25.003  1.00 29.59     0.241 C 
ENDROOT
BRANCH   1   7
HETATM    7  C5' PAP A 125      36.264   1.819  24.236  1.00 29.07     0.187 C 
BRANCH   7   8
HETATM    8  O5' PAP A 125      37.241   0.836  24.517  1.00 30.13    -0.268 OA
BRANCH   8   9
HETATM    9  PA  PAP A 125      37.845  -0.102  23.331  1.00 31.22     0.419 P 
HETATM   10  O1A PAP A 125      36.818  -1.146  23.043  1.00 32.37    -0.624 OA
HETATM   11  O2A PAP A 125      38.302   0.770  22.215  1.00 32.57    -0.624 OA
BRANCH   9  12
HETATM   12  O3A PAP A 125      39.119  -0.979  24.082  1.00 29.92    -0.173 OA
BRANCH  12  13
HETATM   13  PB  PAP A 125      40.051  -2.296  23.755  1.00 26.94     0.431 P 
HETATM   14  O1B PAP A 125      40.234  -2.288  22.289  1.00 24.20    -0.616 OA
HETATM   15  O2B PAP A 125      41.304  -2.041  24.544  1.00 26.86    -0.616 OA
HETATM   16  O3B PAP A 125      39.269  -3.452  24.253  1.00 28.16    -0.616 OA
ENDBRANCH  12  13
ENDBRANCH   9  12
ENDBRANCH   8   9
ENDBRANCH   7   8
ENDBRANCH   1   7
BRANCH   3  17
HETATM   17  O3' PAP A 125      36.670   5.510  24.561  1.00 36.20    -0.261 OA
BRANCH  17  18
HETATM   18  P   PAP A 125      35.583   6.640  23.885  1.00 39.68     0.423 P 
HETATM   19  O1  PAP A 125      34.713   5.740  23.088  1.00 40.50    -0.617 OA
HETATM   20  O2  PAP A 125      34.945   7.234  25.087  1.00 39.38    -0.617 OA
HETATM   21  O3  PAP A 125      36.418   7.620  23.126  1.00 40.59    -0.617 OA
ENDBRANCH  17  18
ENDBRANCH   3  17
BRANCH   6  22
HETATM   22  N9  PAP A 125      40.270   3.294  25.168  1.00 29.22    -0.270 N 
HETATM   23  C4  PAP A 125      41.520   3.955  25.297  1.00 29.28     0.170 A 
HETATM   24  N3  PAP A 125      41.817   5.303  25.286  1.00 29.66    -0.205 NA
HETATM   25  C5  PAP A 125      42.457   2.936  25.434  1.00 29.93     0.155 A 
HETATM   26  C2  PAP A 125      43.150   5.501  25.412  1.00 28.29     0.202 A 
HETATM   27  N1  PAP A 125      44.162   4.631  25.545  1.00 27.66    -0.202 NA
HETATM   28  C6  PAP A 125      43.862   3.305  25.574  1.00 28.82     0.206 A 
HETATM   29  N6  PAP A 125      44.831   2.396  25.797  1.00 26.39    -0.125 N 
HETATM   30  N7  PAP A 125      41.798   1.665  25.387  1.00 30.19    -0.219 NA
HETATM   31  C8  PAP A 125      40.538   1.949  25.232  1.00 28.80     0.182 A 
ENDBRANCH   6  22
TORSDOF 8
ENDMDL
MODEL 8
REMARK VINA RESULT:    -5.529      1.439      5.542
REMARK INTER + INTRA:          -9.354
REMARK INTER:                  -7.906
REMARK INTRA:                  -1.447
REMARK UNBOUND:                -1.239
REMARK  8 active torsions:
REMARK  status: ('A' for Active; 'I' for Inactive)
REMARK    1  A    between atoms: P_1  and  O3'_9 
REMARK    2  A    between atoms: PA_2  and  O5'_5 
REMARK    3  A    between atoms: PA_2  and  O3A_23 
REMARK    4  A    between atoms: PB_3  and  O3A_23 
REMARK    5  A    between atoms: C5'_4  and  O5'_5 
REMARK    6  A    between atoms: C5'_4  and  C4'_6 
REMARK    7  A    between atoms: C3'_8  and  O3'_9 
REMARK    8  A    between atoms: C1'_12  and  N9_31 
ROOT
HETATM    1  C4' PAP A 125      39.427   3.340  23.916  1.00 30.66     0.178 C 
HETATM    2  O4' PAP A 125      39.701   1.998  23.500  1.00 30.64    -0.331 OA
HETATM    3  C3' PAP A 125      38.078   3.303  24.685  1.00 32.01     0.192 C 
HETATM    4  C2' PAP A 125      38.005   1.830  25.071  1.00 31.03     0.231 C 
HETATM    5  O2' PAP A 125      36.645   1.441  25.366  1.00 29.14    -0.216 OA
HETATM    6  C1' PAP A 125      38.500   1.276  23.720  1.00 29.59     0.241 C 
ENDROOT
BRANCH   1   7
HETATM    7  C5' PAP A 125      40.588   3.745  24.777  1.00 29.07     0.187 C 
BRANCH   7   8
HETATM    8  O5' PAP A 125      41.635   2.854  24.447  1.00 30.13    -0.268 OA
BRANCH   8   9
HETATM    9  PA  PAP A 125      42.565   2.191  25.608  1.00 31.22     0.419 P 
HETATM   10  O1A PAP A 125      41.692   2.012  26.806  1.00 32.37    -0.624 OA
HETATM   11  O2A PAP A 125      43.254   0.998  25.048  1.00 32.57    -0.624 OA
BRANCH   9  12
HETATM   12  O3A PAP A 125      43.639   3.452  26.071  1.00 29.92    -0.173 OA
BRANCH  12  13
HETATM   13  PB  PAP A 125      44.264   4.824  25.412  1.00 26.94     0.431 P 
HETATM   14  O1B PAP A 125      43.267   5.878  25.689  1.00 24.20    -0.616 OA
HETATM   15  O2B PAP A 125      45.571   4.993  26.134  1.00 26.86    -0.616 OA
HETATM   16  O3B PAP A 125      44.424   4.517  23.971  1.00 28.16    -0.616 OA
ENDBRANCH  12  13
ENDBRANCH   9  12
ENDBRANCH   8   9
ENDBRANCH   7   8
ENDBRANCH   1   7
BRANCH   3  17
HETATM   17  O3' PAP A 125      36.996   3.669  23.782  1.00 36.20    -0.261 OA
BRANCH  17  18
HETATM   18  P   PAP A 125      36.558   5.304  23.560  1.00 39.68     0.423 P 
HETATM   19  O1  PAP A 125      35.160   5.152  23.084  1.00 40.50    -0.617 OA
HETATM   20  O2  PAP A 125      36.702   5.866  24.926  1.00 39.38    -0.617 OA
HETATM   21  O3  PAP A 125      37.544   5.873  22.591  1.00 40.59    -0.617 OA
ENDBRANCH  17  18
ENDBRANCH   3  17
BRANCH   6  22
HETATM   22  N9  PAP A 125      38.917  -0.145  23.695  1.00 29.22    -0.270 N 
HETATM   23  C4  PAP A 125      38.194  -1.324  23.372  1.00 29.28     0.170 A 
HETATM   24  N3  PAP A 125      36.873  -1.482  23.006  1.00 29.66    -0.205 NA
HETATM   25  C5  PAP A 125      39.110  -2.360  23.513  1.00 29.93     0.155 A 
HETATM   26  C2  PAP A 125      36.582  -2.791  22.813  1.00 28.29     0.202 A 
HETATM   27  N1  PAP A 125      37.348  -3.888  22.916  1.00 27.66    -0.202 NA
HETATM   28  C6  PAP A 125      38.653  -3.724  23.260  1.00 28.82     0.206 A 
HETATM   29  N6  PAP A 125      39.484  -4.783  23.287  1.00 26.39    -0.125 N 
HETATM   30  N7  PAP A 125      40.378  -1.832  23.919  1.00 30.19    -0.219 NA
HETATM   31  C8  PAP A 125      40.192  -0.548  24.004  1.00 28.80     0.182 A 
ENDBRANCH   6  22
TORSDOF 8
ENDMDL
MODEL 9
REMARK VINA RESULT:    -5.525      5.980      9.051
REMARK INTER + INTRA:          -9.348
REMARK INTER:                  -8.326
REMARK INTRA:                  -1.021
REMARK UNBOUND:                -1.239
REMARK  8 active torsions:
REMARK  status: ('A' for Active; 'I' for Inactive)
REMARK    1  A    between atoms: P_1  and  O3'_9 
REMARK    2  A    between atoms: PA_2  and  O5'_5 
REMARK    3  A    between atoms: PA_2  and  O3A_23 
REMARK    4  A    between atoms: PB_3  and  O3A_23 
REMARK    5  A    between atoms: C5'_4  and  O5'_5 
REMARK    6  A    between atoms: C5'_4  and  C4'_6 
REMARK    7  A    between atoms: C3'_8  and  O3'_9 
REMARK    8  A    between atoms: C1'_12  and  N9_31 
ROOT
HETATM    1  C4' PAP A 125      39.699  -3.863  23.720  1.00 30.66     0.178 C 
HETATM    2  O4' PAP A 125      39.385  -2.552  24.200  1.00 30.64    -0.331 OA
HETATM    3  C3' PAP A 125      39.963  -3.730  22.196  1.00 32.01     0.192 C 
HETATM    4  C2' PAP A 125      40.282  -2.244  22.086  1.00 31.03     0.231 C 
HETATM    5  O2' PAP A 125      40.092  -1.774  20.732  1.00 29.14    -0.216 OA
HETATM    6  C1' PAP A 125      39.173  -1.761  23.042  1.00 29.59     0.241 C 
ENDROOT
BRANCH   1   7
HETATM    7  C5' PAP A 125      40.909  -4.301  24.494  1.00 29.07     0.187 C 
BRANCH   7   8
HETATM    8  O5' PAP A 125      40.808  -3.661  25.751  1.00 30.13    -0.268 OA
BRANCH   8   9
HETATM    9  PA  PAP A 125      42.042  -3.706  26.812  1.00 31.22     0.419 P 
HETATM   10  O1A PAP A 125      43.002  -4.734  26.311  1.00 32.37    -0.624 OA
HETATM   11  O2A PAP A 125      42.538  -2.320  27.030  1.00 32.57    -0.624 OA
BRANCH   9  12
HETATM   12  O3A PAP A 125      41.373  -4.426  28.222  1.00 29.92    -0.173 OA
BRANCH  12  13
HETATM   13  PB  PAP A 125      41.916  -5.170  29.586  1.00 26.94     0.431 P 
HETATM   14  O1B PAP A 125      42.573  -4.107  30.373  1.00 24.20    -0.616 OA
HETATM   15  O2B PAP A 125      40.663  -5.724  30.204  1.00 26.86    -0.616 OA
HETATM   16  O3B PAP A 125      42.846  -6.219  29.106  1.00 28.16    -0.616 OA
ENDBRANCH  12  13
ENDBRANCH   9  12
ENDBRANCH   8   9
ENDBRANCH   7   8
ENDBRANCH   1   7
BRANCH   3  17
HETATM   17  O3' PAP A 125      38.750  -4.068  21.464  1.00 36.20    -0.261 OA
BRANCH  17  18
HETATM   18  P   PAP A 125      38.175  -5.675  21.418  1.00 39.68     0.423 P 
HETATM   19  O1  PAP A 125      37.649  -5.738  20.032  1.00 40.50    -0.617 OA
HETATM   20  O2  PAP A 125      39.407  -6.466  21.663  1.00 39.38    -0.617 OA
HETATM   21  O3  PAP A 125      37.178  -5.794  22.526  1.00 40.59    -0.617 OA
ENDBRANCH  17  18
ENDBRANCH   3  17
BRANCH   6  22
HETATM   22  N9  PAP A 125      39.273  -0.365  23.528  1.00 29.22    -0.270 N 
HETATM   23  C4  PAP A 125      38.269   0.566  23.904  1.00 29.28     0.170 A 
HETATM   24  N3  PAP A 125      36.895   0.438  23.902  1.00 29.66    -0.205 NA
HETATM   25  C5  PAP A 125      38.961   1.710  24.287  1.00 29.93     0.155 A 
HETATM   26  C2  PAP A 125      36.306   1.587  24.312  1.00 28.29     0.202 A 
HETATM   27  N1  PAP A 125      36.834   2.757  24.702  1.00 27.66    -0.202 NA
HETATM   28  C6  PAP A 125      38.188   2.871  24.719  1.00 28.82     0.206 A 
HETATM   29  N6  PAP A 125      38.768   3.992  25.189  1.00 26.39    -0.125 N 
HETATM   30  N7  PAP A 125      40.370   1.491  24.148  1.00 30.19    -0.219 NA
HETATM   31  C8  PAP A 125      40.475   0.273  23.706  1.00 28.80     0.182 A 
ENDBRANCH   6  22
TORSDOF 8
ENDMDL
