MODEL 1
REMARK VINA RESULT:    -5.945      0.000      0.000
REMARK INTER + INTRA:          -9.976
REMARK INTER:                  -8.725
REMARK INTRA:                  -1.250
REMARK UNBOUND:                -1.250
REMARK  8 active torsions:
REMARK  status: ('A' for Active; 'I' for Inactive)
REMARK    1  A    between atoms: P_1  and  O3'_9 
REMARK    2  A    between atoms: PA_2  and  O5'_5 
REMARK    3  A    between atoms: PA_2  and  O3A_23 
REMARK    4  A    between atoms: PB_3  and  O3A_23 
REMARK    5  A    between atoms: C5'_4  and  O5'_5 
REMARK    6  A    between atoms: C5'_4  and  C4'_6 
REMARK    7  A    between atoms: C3'_8  and  O3'_9 
REMARK    8  A    between atoms: C1'_12  and  N9_31 
ROOT
HETATM    1  C4' PAP A 125      39.777   2.981  25.126  1.00 30.66     0.178 C 
HETATM    2  O4' PAP A 125      38.996   1.784  25.052  1.00 30.64    -0.331 OA
HETATM    3  C3' PAP A 125      40.933   2.824  24.102  1.00 32.01     0.192 C 
HETATM    4  C2' PAP A 125      40.360   1.755  23.179  1.00 31.03     0.231 C 
HETATM    5  O2' PAP A 125      41.411   1.093  22.441  1.00 29.14    -0.216 OA
HETATM    6  C1' PAP A 125      39.768   0.869  24.293  1.00 29.59     0.241 C 
ENDROOT
BRANCH   1   7
HETATM    7  C5' PAP A 125      38.837   4.103  24.790  1.00 29.07     0.187 C 
BRANCH   7   8
HETATM    8  O5' PAP A 125      37.660   3.847  25.532  1.00 30.13    -0.268 OA
BRANCH   8   9
HETATM    9  PA  PAP A 125      36.204   3.824  24.804  1.00 31.22     0.419 P 
HETATM   10  O1A PAP A 125      36.458   3.785  23.334  1.00 32.37    -0.624 OA
HETATM   11  O2A PAP A 125      35.382   2.741  25.410  1.00 32.57    -0.624 OA
BRANCH   9  12
HETATM   12  O3A PAP A 125      35.566   5.399  25.066  1.00 29.92    -0.173 OA
BRANCH  12  13
HETATM   13  PB  PAP A 125      35.669   6.887  24.371  1.00 26.94     0.431 P 
HETATM   14  O1B PAP A 125      34.607   6.912  23.346  1.00 24.20    -0.616 OA
HETATM   15  O2B PAP A 125      35.450   7.826  25.524  1.00 26.86    -0.616 OA
HETATM   16  O3B PAP A 125      37.040   6.954  23.813  1.00 28.16    -0.616 OA
ENDBRANCH  12  13
ENDBRANCH   9  12
ENDBRANCH   8   9
ENDBRANCH   7   8
ENDBRANCH   1   7
BRANCH   3  17
HETATM   17  O3' PAP A 125      42.126   2.348  24.788  1.00 36.20    -0.261 OA
BRANCH  17  18
HETATM   18  P   PAP A 125      43.306   3.445  25.353  1.00 39.68     0.423 P 
HETATM   19  O1  PAP A 125      44.296   2.506  25.937  1.00 40.50    -0.617 OA
HETATM   20  O2  PAP A 125      43.739   4.126  24.107  1.00 39.38    -0.617 OA
HETATM   21  O3  PAP A 125      42.603   4.362  26.302  1.00 40.59    -0.617 OA
ENDBRANCH  17  18
ENDBRANCH   3  17
BRANCH   6  22
HETATM   22  N9  PAP A 125      38.799  -0.170  23.875  1.00 29.22    -0.270 N 
HETATM   23  C4  PAP A 125      38.963  -1.563  23.651  1.00 29.28     0.170 A 
HETATM   24  N3  PAP A 125      40.095  -2.349  23.741  1.00 29.66    -0.205 NA
HETATM   25  C5  PAP A 125      37.702  -2.022  23.288  1.00 29.93     0.155 A 
HETATM   26  C2  PAP A 125      39.813  -3.633  23.413  1.00 28.29     0.202 A 
HETATM   27  N1  PAP A 125      38.663  -4.216  23.042  1.00 27.66    -0.202 NA
HETATM   28  C6  PAP A 125      37.549  -3.440  22.973  1.00 28.82     0.206 A 
HETATM   29  N6  PAP A 125      36.353  -3.995  22.695  1.00 26.39    -0.125 N 
HETATM   30  N7  PAP A 125      36.774  -0.932  23.285  1.00 30.19    -0.219 NA
HETATM   31  C8  PAP A 125      37.477   0.105  23.633  1.00 28.80     0.182 A 
ENDBRANCH   6  22
TORSDOF 8
ENDMDL
MODEL 2
REMARK VINA RESULT:    -5.736      2.928      6.198
REMARK INTER + INTRA:          -9.669
REMARK INTER:                  -8.165
REMARK INTRA:                  -1.504
REMARK UNBOUND:                -1.250
REMARK  8 active torsions:
REMARK  status: ('A' for Active; 'I' for Inactive)
REMARK    1  A    between atoms: P_1  and  O3'_9 
REMARK    2  A    between atoms: PA_2  and  O5'_5 
REMARK    3  A    between atoms: PA_2  and  O3A_23 
REMARK    4  A    between atoms: PB_3  and  O3A_23 
REMARK    5  A    between atoms: C5'_4  and  O5'_5 
REMARK    6  A    between atoms: C5'_4  and  C4'_6 
REMARK    7  A    between atoms: C3'_8  and  O3'_9 
REMARK    8  A    between atoms: C1'_12  and  N9_31 
ROOT
HETATM    1  C4' PAP A 125      37.517   5.220  22.634  1.00 30.66     0.178 C 
HETATM    2  O4' PAP A 125      37.672   3.801  22.522  1.00 30.64    -0.331 OA
HETATM    3  C3' PAP A 125      36.928   5.495  24.045  1.00 32.01     0.192 C 
HETATM    4  C2' PAP A 125      37.313   4.213  24.775  1.00 31.03     0.231 C 
HETATM    5  O2' PAP A 125      36.479   4.012  25.938  1.00 29.14    -0.216 OA
HETATM    6  C1' PAP A 125      36.965   3.251  23.622  1.00 29.59     0.241 C 
ENDROOT
BRANCH   1   7
HETATM    7  C5' PAP A 125      38.890   5.796  22.444  1.00 29.07     0.187 C 
BRANCH   7   8
HETATM    8  O5' PAP A 125      39.638   4.787  21.794  1.00 30.13    -0.268 OA
BRANCH   8   9
HETATM    9  PA  PAP A 125      40.727   5.166  20.644  1.00 31.22     0.419 P 
HETATM   10  O1A PAP A 125      40.358   6.518  20.131  1.00 32.37    -0.624 OA
HETATM   11  O2A PAP A 125      42.096   4.967  21.196  1.00 32.57    -0.624 OA
BRANCH   9  12
HETATM   12  O3A PAP A 125      40.355   4.116  19.335  1.00 29.92    -0.173 OA
BRANCH  12  13
HETATM   13  PB  PAP A 125      39.623   2.658  19.111  1.00 26.94     0.431 P 
HETATM   14  O1B PAP A 125      38.195   2.891  19.405  1.00 24.20    -0.616 OA
HETATM   15  O2B PAP A 125      39.923   2.335  17.675  1.00 26.86    -0.616 OA
HETATM   16  O3B PAP A 125      40.289   1.745  20.069  1.00 28.16    -0.616 OA
ENDBRANCH  12  13
ENDBRANCH   9  12
ENDBRANCH   8   9
ENDBRANCH   7   8
ENDBRANCH   1   7
BRANCH   3  17
HETATM   17  O3' PAP A 125      35.482   5.636  23.946  1.00 36.20    -0.261 OA
BRANCH  17  18
HETATM   18  P   PAP A 125      34.746   7.174  24.023  1.00 39.68     0.423 P 
HETATM   19  O1  PAP A 125      35.041   7.689  22.663  1.00 40.50    -0.617 OA
HETATM   20  O2  PAP A 125      33.321   6.839  24.276  1.00 39.38    -0.617 OA
HETATM   21  O3  PAP A 125      35.387   7.887  25.171  1.00 40.59    -0.617 OA
ENDBRANCH  17  18
ENDBRANCH   3  17
BRANCH   6  22
HETATM   22  N9  PAP A 125      37.479   1.866  23.732  1.00 29.22    -0.270 N 
HETATM   23  C4  PAP A 125      38.805   1.358  23.707  1.00 29.28     0.170 A 
HETATM   24  N3  PAP A 125      40.006   2.021  23.550  1.00 29.66    -0.205 NA
HETATM   25  C5  PAP A 125      38.669  -0.016  23.866  1.00 29.93     0.155 A 
HETATM   26  C2  PAP A 125      41.039   1.146  23.558  1.00 28.29     0.202 A 
HETATM   27  N1  PAP A 125      41.064  -0.189  23.694  1.00 27.66    -0.202 NA
HETATM   28  C6  PAP A 125      39.879  -0.833  23.866  1.00 28.82     0.206 A 
HETATM   29  N6  PAP A 125      39.858  -2.160  24.098  1.00 26.39    -0.125 N 
HETATM   30  N7  PAP A 125      37.282  -0.354  23.984  1.00 30.19    -0.219 NA
HETATM   31  C8  PAP A 125      36.655   0.781  23.898  1.00 28.80     0.182 A 
ENDBRANCH   6  22
TORSDOF 8
ENDMDL
MODEL 3
REMARK VINA RESULT:    -5.593      2.312      6.140
REMARK INTER + INTRA:          -9.460
REMARK INTER:                  -7.684
REMARK INTRA:                  -1.776
REMARK UNBOUND:                -1.250
REMARK  8 active torsions:
REMARK  status: ('A' for Active; 'I' for Inactive)
REMARK    1  A    between atoms: P_1  and  O3'_9 
REMARK    2  A    between atoms: PA_2  and  O5'_5 
REMARK    3  A    between atoms: PA_2  and  O3A_23 
REMARK    4  A    between atoms: PB_3  and  O3A_23 
REMARK    5  A    between atoms: C5'_4  and  O5'_5 
REMARK    6  A    between atoms: C5'_4  and  C4'_6 
REMARK    7  A    between atoms: C3'_8  and  O3'_9 
REMARK    8  A    between atoms: C1'_12  and  N9_31 
ROOT
HETATM    1  C4' PAP A 125      39.723   2.957  23.444  1.00 30.66     0.178 C 
HETATM    2  O4' PAP A 125      39.844   1.733  22.713  1.00 30.64    -0.331 OA
HETATM    3  C3' PAP A 125      38.537   2.773  24.430  1.00 32.01     0.192 C 
HETATM    4  C2' PAP A 125      38.457   1.253  24.507  1.00 31.03     0.231 C 
HETATM    5  O2' PAP A 125      37.156   0.828  24.967  1.00 29.14    -0.216 OA
HETATM    6  C1' PAP A 125      38.667   0.996  23.001  1.00 29.59     0.241 C 
ENDROOT
BRANCH   1   7
HETATM    7  C5' PAP A 125      41.042   3.152  24.134  1.00 29.07     0.187 C 
BRANCH   7   8
HETATM    8  O5' PAP A 125      41.739   1.933  23.971  1.00 30.13    -0.268 OA
BRANCH   8   9
HETATM    9  PA  PAP A 125      42.286   1.105  25.263  1.00 31.22     0.419 P 
HETATM   10  O1A PAP A 125      43.754   0.923  25.066  1.00 32.37    -0.624 OA
HETATM   11  O2A PAP A 125      41.815   1.784  26.501  1.00 32.57    -0.624 OA
BRANCH   9  12
HETATM   12  O3A PAP A 125      41.648  -0.479  25.062  1.00 29.92    -0.173 OA
BRANCH  12  13
HETATM   13  PB  PAP A 125      42.132  -2.030  25.321  1.00 26.94     0.431 P 
HETATM   14  O1B PAP A 125      40.939  -2.859  25.055  1.00 24.20    -0.616 OA
HETATM   15  O2B PAP A 125      43.255  -2.213  24.340  1.00 26.86    -0.616 OA
HETATM   16  O3B PAP A 125      42.576  -2.061  26.735  1.00 28.16    -0.616 OA
ENDBRANCH  12  13
ENDBRANCH   9  12
ENDBRANCH   8   9
ENDBRANCH   7   8
ENDBRANCH   1   7
BRANCH   3  17
HETATM   17  O3' PAP A 125      37.330   3.340  23.846  1.00 36.20    -0.261 OA
BRANCH  17  18
HETATM   18  P   PAP A 125      36.545   4.669  24.576  1.00 39.68     0.423 P 
HETATM   19  O1  PAP A 125      35.386   4.837  23.665  1.00 40.50    -0.617 OA
HETATM   20  O2  PAP A 125      36.217   4.148  25.927  1.00 39.38    -0.617 OA
HETATM   21  O3  PAP A 125      37.547   5.779  24.608  1.00 40.59    -0.617 OA
ENDBRANCH  17  18
ENDBRANCH   3  17
BRANCH   6  22
HETATM   22  N9  PAP A 125      38.995  -0.391  22.601  1.00 29.22    -0.270 N 
HETATM   23  C4  PAP A 125      38.215  -1.578  22.622  1.00 29.28     0.170 A 
HETATM   24  N3  PAP A 125      36.917  -1.779  23.046  1.00 29.66    -0.205 NA
HETATM   25  C5  PAP A 125      39.050  -2.569  22.117  1.00 29.93     0.155 A 
HETATM   26  C2  PAP A 125      36.567  -3.081  22.918  1.00 28.29     0.202 A 
HETATM   27  N1  PAP A 125      37.256  -4.138  22.460  1.00 27.66    -0.202 NA
HETATM   28  C6  PAP A 125      38.528  -3.930  22.027  1.00 28.82     0.206 A 
HETATM   29  N6  PAP A 125      39.228  -4.939  21.474  1.00 26.39    -0.125 N 
HETATM   30  N7  PAP A 125      40.326  -2.006  21.793  1.00 30.19    -0.219 NA
HETATM   31  C8  PAP A 125      40.221  -0.747  22.098  1.00 28.80     0.182 A 
ENDBRANCH   6  22
TORSDOF 8
ENDMDL
MODEL 4
REMARK VINA RESULT:    -5.555      1.608      5.389
REMARK INTER + INTRA:          -9.403
REMARK INTER:                  -7.848
REMARK INTRA:                  -1.556
REMARK UNBOUND:                -1.250
REMARK  8 active torsions:
REMARK  status: ('A' for Active; 'I' for Inactive)
REMARK    1  A    between atoms: P_1  and  O3'_9 
REMARK    2  A    between atoms: PA_2  and  O5'_5 
REMARK    3  A    between atoms: PA_2  and  O3A_23 
REMARK    4  A    between atoms: PB_3  and  O3A_23 
REMARK    5  A    between atoms: C5'_4  and  O5'_5 
REMARK    6  A    between atoms: C5'_4  and  C4'_6 
REMARK    7  A    between atoms: C3'_8  and  O3'_9 
REMARK    8  A    between atoms: C1'_12  and  N9_31 
ROOT
HETATM    1  C4' PAP A 125      38.593   2.642  22.463  1.00 30.66     0.178 C 
HETATM    2  O4' PAP A 125      38.433   1.234  22.260  1.00 30.64    -0.331 OA
HETATM    3  C3' PAP A 125      38.086   2.946  23.899  1.00 32.01     0.192 C 
HETATM    4  C2' PAP A 125      38.183   1.567  24.540  1.00 31.03     0.231 C 
HETATM    5  O2' PAP A 125      37.331   1.478  25.703  1.00 29.14    -0.216 OA
HETATM    6  C1' PAP A 125      37.627   0.781  23.336  1.00 29.59     0.241 C 
ENDROOT
BRANCH   1   7
HETATM    7  C5' PAP A 125      40.059   2.915  22.284  1.00 29.07     0.187 C 
BRANCH   7   8
HETATM    8  O5' PAP A 125      40.313   4.109  22.997  1.00 30.13    -0.268 OA
BRANCH   8   9
HETATM    9  PA  PAP A 125      41.639   4.258  23.931  1.00 31.22     0.419 P 
HETATM   10  O1A PAP A 125      42.722   4.796  23.056  1.00 32.37    -0.624 OA
HETATM   11  O2A PAP A 125      41.277   5.016  25.160  1.00 32.57    -0.624 OA
BRANCH   9  12
HETATM   12  O3A PAP A 125      42.131   2.640  24.241  1.00 29.92    -0.173 OA
BRANCH  12  13
HETATM   13  PB  PAP A 125      42.829   1.792  25.467  1.00 26.94     0.431 P 
HETATM   14  O1B PAP A 125      43.903   2.666  25.982  1.00 24.20    -0.616 OA
HETATM   15  O2B PAP A 125      41.694   1.564  26.424  1.00 26.86    -0.616 OA
HETATM   16  O3B PAP A 125      43.325   0.547  24.836  1.00 28.16    -0.616 OA
ENDBRANCH  12  13
ENDBRANCH   9  12
ENDBRANCH   8   9
ENDBRANCH   7   8
ENDBRANCH   1   7
BRANCH   3  17
HETATM   17  O3' PAP A 125      36.706   3.407  23.837  1.00 36.20    -0.261 OA
BRANCH  17  18
HETATM   18  P   PAP A 125      36.246   4.892  24.543  1.00 39.68     0.423 P 
HETATM   19  O1  PAP A 125      36.088   4.484  25.961  1.00 40.50    -0.617 OA
HETATM   20  O2  PAP A 125      37.417   5.760  24.262  1.00 39.38    -0.617 OA
HETATM   21  O3  PAP A 125      35.011   5.332  23.824  1.00 40.59    -0.617 OA
ENDBRANCH  17  18
ENDBRANCH   3  17
BRANCH   6  22
HETATM   22  N9  PAP A 125      37.824  -0.686  23.349  1.00 29.22    -0.270 N 
HETATM   23  C4  PAP A 125      38.973  -1.471  23.633  1.00 29.28     0.170 A 
HETATM   24  N3  PAP A 125      40.255  -1.079  23.963  1.00 29.66    -0.205 NA
HETATM   25  C5  PAP A 125      38.553  -2.790  23.500  1.00 29.93     0.155 A 
HETATM   26  C2  PAP A 125      41.058  -2.158  24.126  1.00 28.29     0.202 A 
HETATM   27  N1  PAP A 125      40.802  -3.471  24.026  1.00 27.66    -0.202 NA
HETATM   28  C6  PAP A 125      39.533  -3.850  23.719  1.00 28.82     0.206 A 
HETATM   29  N6  PAP A 125      39.203  -5.156  23.696  1.00 26.39    -0.125 N 
HETATM   30  N7  PAP A 125      37.169  -2.821  23.136  1.00 30.19    -0.219 NA
HETATM   31  C8  PAP A 125      36.814  -1.572  23.067  1.00 28.80     0.182 A 
ENDBRANCH   6  22
TORSDOF 8
ENDMDL
MODEL 5
REMARK VINA RESULT:    -5.551      3.126      4.299
REMARK INTER + INTRA:          -9.398
REMARK INTER:                  -8.034
REMARK INTRA:                  -1.364
REMARK UNBOUND:                -1.250
REMARK  8 active torsions:
REMARK  status: ('A' for Active; 'I' for Inactive)
REMARK    1  A    between atoms: P_1  and  O3'_9 
REMARK    2  A    between atoms: PA_2  and  O5'_5 
REMARK    3  A    between atoms: PA_2  and  O3A_23 
REMARK    4  A    between atoms: PB_3  and  O3A_23 
REMARK    5  A    between atoms: C5'_4  and  O5'_5 
REMARK    6  A    between atoms: C5'_4  and  C4'_6 
REMARK    7  A    between atoms: C3'_8  and  O3'_9 
REMARK    8  A    between atoms: C1'_12  and  N9_31 
ROOT
HETATM    1  C4' PAP A 125      37.382   5.656  24.676  1.00 30.66     0.178 C 
HETATM    2  O4' PAP A 125      37.502   4.242  24.863  1.00 30.64    -0.331 OA
HETATM    3  C3' PAP A 125      37.771   5.946  23.200  1.00 32.01     0.192 C 
HETATM    4  C2' PAP A 125      37.561   4.575  22.570  1.00 31.03     0.231 C 
HETATM    5  O2' PAP A 125      38.301   4.456  21.335  1.00 29.14    -0.216 OA
HETATM    6  C1' PAP A 125      38.189   3.762  23.719  1.00 29.59     0.241 C 
ENDROOT
BRANCH   1   7
HETATM    7  C5' PAP A 125      35.951   5.988  24.986  1.00 29.07     0.187 C 
BRANCH   7   8
HETATM    8  O5' PAP A 125      35.790   7.347  24.631  1.00 30.13    -0.268 OA
BRANCH   8   9
HETATM    9  PA  PAP A 125      34.367   7.900  24.067  1.00 31.22     0.419 P 
HETATM   10  O1A PAP A 125      34.646   8.538  22.747  1.00 32.37    -0.624 OA
HETATM   11  O2A PAP A 125      33.367   6.799  24.125  1.00 32.57    -0.624 OA
BRANCH   9  12
HETATM   12  O3A PAP A 125      33.985   9.229  25.089  1.00 29.92    -0.173 OA
BRANCH  12  13
HETATM   13  PB  PAP A 125      34.792  10.385  25.939  1.00 26.94     0.431 P 
HETATM   14  O1B PAP A 125      35.763  10.961  24.986  1.00 24.20    -0.616 OA
HETATM   15  O2B PAP A 125      33.703  11.325  26.370  1.00 26.86    -0.616 OA
HETATM   16  O3B PAP A 125      35.422   9.659  27.067  1.00 28.16    -0.616 OA
ENDBRANCH  12  13
ENDBRANCH   9  12
ENDBRANCH   8   9
ENDBRANCH   7   8
ENDBRANCH   1   7
BRANCH   3  17
HETATM   17  O3' PAP A 125      39.169   6.350  23.140  1.00 36.20    -0.261 OA
BRANCH  17  18
HETATM   18  P   PAP A 125      39.611   7.888  22.544  1.00 39.68     0.423 P 
HETATM   19  O1  PAP A 125      40.147   7.522  21.210  1.00 40.50    -0.617 OA
HETATM   20  O2  PAP A 125      38.315   8.612  22.527  1.00 39.38    -0.617 OA
HETATM   21  O3  PAP A 125      40.581   8.455  23.531  1.00 40.59    -0.617 OA
ENDBRANCH  17  18
ENDBRANCH   3  17
BRANCH   6  22
HETATM   22  N9  PAP A 125      37.932   2.303  23.722  1.00 29.22    -0.270 N 
HETATM   23  C4  PAP A 125      38.579   1.240  23.039  1.00 29.28     0.170 A 
HETATM   24  N3  PAP A 125      39.634   1.269  22.149  1.00 29.66    -0.205 NA
HETATM   25  C5  PAP A 125      37.909   0.090  23.441  1.00 29.93     0.155 A 
HETATM   26  C2  PAP A 125      39.922   0.021  21.707  1.00 28.29     0.202 A 
HETATM   27  N1  PAP A 125      39.368  -1.166  21.996  1.00 27.66    -0.202 NA
HETATM   28  C6  PAP A 125      38.342  -1.190  22.887  1.00 28.82     0.206 A 
HETATM   29  N6  PAP A 125      37.813  -2.365  23.279  1.00 26.39    -0.125 N 
HETATM   30  N7  PAP A 125      36.863   0.436  24.356  1.00 30.19    -0.219 NA
HETATM   31  C8  PAP A 125      36.935   1.729  24.471  1.00 28.80     0.182 A 
ENDBRANCH   6  22
TORSDOF 8
ENDMDL
MODEL 6
REMARK VINA RESULT:    -5.508      1.754      2.372
REMARK INTER + INTRA:          -9.334
REMARK INTER:                  -7.940
REMARK INTRA:                  -1.393
REMARK UNBOUND:                -1.250
REMARK  8 active torsions:
REMARK  status: ('A' for Active; 'I' for Inactive)
REMARK    1  A    between atoms: P_1  and  O3'_9 
REMARK    2  A    between atoms: PA_2  and  O5'_5 
REMARK    3  A    between atoms: PA_2  and  O3A_23 
REMARK    4  A    between atoms: PB_3  and  O3A_23 
REMARK    5  A    between atoms: C5'_4  and  O5'_5 
REMARK    6  A    between atoms: C5'_4  and  C4'_6 
REMARK    7  A    between atoms: C3'_8  and  O3'_9 
REMARK    8  A    between atoms: C1'_12  and  N9_31 
ROOT
HETATM    1  C4' PAP A 125      37.564   1.743  24.526  1.00 30.66     0.178 C 
HETATM    2  O4' PAP A 125      37.327   0.340  24.371  1.00 30.64    -0.331 OA
HETATM    3  C3' PAP A 125      38.847   2.072  23.716  1.00 32.01     0.192 C 
HETATM    4  C2' PAP A 125      38.894   0.890  22.754  1.00 31.03     0.231 C 
HETATM    5  O2' PAP A 125      40.227   0.705  22.229  1.00 29.14    -0.216 OA
HETATM    6  C1' PAP A 125      38.509  -0.186  23.789  1.00 29.59     0.241 C 
ENDROOT
BRANCH   1   7
HETATM    7  C5' PAP A 125      36.337   2.424  23.992  1.00 29.07     0.187 C 
BRANCH   7   8
HETATM    8  O5' PAP A 125      36.805   3.573  23.313  1.00 30.13    -0.268 OA
BRANCH   8   9
HETATM    9  PA  PAP A 125      36.289   5.059  23.733  1.00 31.22     0.419 P 
HETATM   10  O1A PAP A 125      35.000   5.285  23.015  1.00 32.37    -0.624 OA
HETATM   11  O2A PAP A 125      36.303   5.170  25.217  1.00 32.57    -0.624 OA
BRANCH   9  12
HETATM   12  O3A PAP A 125      37.384   6.132  22.953  1.00 29.92    -0.173 OA
BRANCH  12  13
HETATM   13  PB  PAP A 125      38.104   7.578  23.266  1.00 26.94     0.431 P 
HETATM   14  O1B PAP A 125      39.297   7.615  22.395  1.00 24.20    -0.616 OA
HETATM   15  O2B PAP A 125      37.042   8.580  22.915  1.00 26.86    -0.616 OA
HETATM   16  O3B PAP A 125      38.423   7.541  24.713  1.00 28.16    -0.616 OA
ENDBRANCH  12  13
ENDBRANCH   9  12
ENDBRANCH   8   9
ENDBRANCH   7   8
ENDBRANCH   1   7
BRANCH   3  17
HETATM   17  O3' PAP A 125      39.997   2.074  24.610  1.00 36.20    -0.261 OA
BRANCH  17  18
HETATM   18  P   PAP A 125      40.875   3.509  24.902  1.00 39.68     0.423 P 
HETATM   19  O1  PAP A 125      41.416   3.229  26.255  1.00 40.50    -0.617 OA
HETATM   20  O2  PAP A 125      41.878   3.503  23.807  1.00 39.38    -0.617 OA
HETATM   21  O3  PAP A 125      39.893   4.631  24.785  1.00 40.59    -0.617 OA
ENDBRANCH  17  18
ENDBRANCH   3  17
BRANCH   6  22
HETATM   22  N9  PAP A 125      38.100  -1.506  23.258  1.00 29.22    -0.270 N 
HETATM   23  C4  PAP A 125      38.871  -2.603  22.790  1.00 29.28     0.170 A 
HETATM   24  N3  PAP A 125      40.240  -2.742  22.678  1.00 29.66    -0.205 NA
HETATM   25  C5  PAP A 125      37.941  -3.571  22.429  1.00 29.93     0.155 A 
HETATM   26  C2  PAP A 125      40.557  -3.950  22.153  1.00 28.29     0.202 A 
HETATM   27  N1  PAP A 125      39.781  -4.970  21.757  1.00 27.66    -0.202 NA
HETATM   28  C6  PAP A 125      38.435  -4.834  21.886  1.00 28.82     0.206 A 
HETATM   29  N6  PAP A 125      37.619  -5.863  21.588  1.00 26.39    -0.125 N 
HETATM   30  N7  PAP A 125      36.617  -3.081  22.666  1.00 30.19    -0.219 NA
HETATM   31  C8  PAP A 125      36.786  -1.884  23.145  1.00 28.80     0.182 A 
ENDBRANCH   6  22
TORSDOF 8
ENDMDL
MODEL 7
REMARK VINA RESULT:    -5.483      3.995      7.426
REMARK INTER + INTRA:          -9.298
REMARK INTER:                  -7.729
REMARK INTRA:                  -1.569
REMARK UNBOUND:                -1.250
REMARK  8 active torsions:
REMARK  status: ('A' for Active; 'I' for Inactive)
REMARK    1  A    between atoms: P_1  and  O3'_9 
REMARK    2  A    between atoms: PA_2  and  O5'_5 
REMARK    3  A    between atoms: PA_2  and  O3A_23 
REMARK    4  A    between atoms: PB_3  and  O3A_23 
REMARK    5  A    between atoms: C5'_4  and  O5'_5 
REMARK    6  A    between atoms: C5'_4  and  C4'_6 
REMARK    7  A    between atoms: C3'_8  and  O3'_9 
REMARK    8  A    between atoms: C1'_12  and  N9_31 
ROOT
HETATM    1  C4' PAP A 125      36.895   3.060  24.962  1.00 30.66     0.178 C 
HETATM    2  O4' PAP A 125      38.195   2.753  25.476  1.00 30.64    -0.331 OA
HETATM    3  C3' PAP A 125      37.083   4.200  23.923  1.00 32.01     0.192 C 
HETATM    4  C2' PAP A 125      38.561   4.044  23.586  1.00 31.03     0.231 C 
HETATM    5  O2' PAP A 125      39.092   5.263  23.020  1.00 29.14    -0.216 OA
HETATM    6  C1' PAP A 125      39.040   3.802  25.031  1.00 29.59     0.241 C 
ENDROOT
BRANCH   1   7
HETATM    7  C5' PAP A 125      36.386   1.785  24.354  1.00 29.07     0.187 C 
BRANCH   7   8
HETATM    8  O5' PAP A 125      37.405   0.828  24.570  1.00 30.13    -0.268 OA
BRANCH   8   9
HETATM    9  PA  PAP A 125      37.910  -0.139  23.362  1.00 31.22     0.419 P 
HETATM   10  O1A PAP A 125      36.827  -1.140  23.131  1.00 32.37    -0.624 OA
HETATM   11  O2A PAP A 125      38.348   0.709  22.219  1.00 32.57    -0.624 OA
BRANCH   9  12
HETATM   12  O3A PAP A 125      39.182  -1.067  24.055  1.00 29.92    -0.173 OA
BRANCH  12  13
HETATM   13  PB  PAP A 125      39.942  -2.498  23.770  1.00 26.94     0.431 P 
HETATM   14  O1B PAP A 125      41.030  -2.566  24.766  1.00 24.20    -0.616 OA
HETATM   15  O2B PAP A 125      38.852  -3.515  23.961  1.00 26.86    -0.616 OA
HETATM   16  O3B PAP A 125      40.419  -2.406  22.370  1.00 28.16    -0.616 OA
ENDBRANCH  12  13
ENDBRANCH   9  12
ENDBRANCH   8   9
ENDBRANCH   7   8
ENDBRANCH   1   7
BRANCH   3  17
HETATM   17  O3' PAP A 125      36.816   5.482  24.559  1.00 36.20    -0.261 OA
BRANCH  17  18
HETATM   18  P   PAP A 125      35.672   6.565  23.899  1.00 39.68     0.423 P 
HETATM   19  O1  PAP A 125      36.553   7.417  23.062  1.00 40.50    -0.617 OA
HETATM   20  O2  PAP A 125      34.767   5.660  23.147  1.00 39.38    -0.617 OA
HETATM   21  O3  PAP A 125      35.001   7.223  25.062  1.00 40.59    -0.617 OA
ENDBRANCH  17  18
ENDBRANCH   3  17
BRANCH   6  22
HETATM   22  N9  PAP A 125      40.410   3.265  25.197  1.00 29.22    -0.270 N 
HETATM   23  C4  PAP A 125      41.662   3.923  25.322  1.00 29.28     0.170 A 
HETATM   24  N3  PAP A 125      41.962   5.271  25.303  1.00 29.66    -0.205 NA
HETATM   25  C5  PAP A 125      42.595   2.903  25.464  1.00 29.93     0.155 A 
HETATM   26  C2  PAP A 125      43.296   5.466  25.427  1.00 28.29     0.202 A 
HETATM   27  N1  PAP A 125      44.306   4.594  25.564  1.00 27.66    -0.202 NA
HETATM   28  C6  PAP A 125      44.002   3.269  25.601  1.00 28.82     0.206 A 
HETATM   29  N6  PAP A 125      44.969   2.359  25.829  1.00 26.39    -0.125 N 
HETATM   30  N7  PAP A 125      41.933   1.634  25.425  1.00 30.19    -0.219 NA
HETATM   31  C8  PAP A 125      40.675   1.920  25.269  1.00 28.80     0.182 A 
ENDBRANCH   6  22
TORSDOF 8
ENDMDL
MODEL 8
REMARK VINA RESULT:    -5.479      4.509      7.462
REMARK INTER + INTRA:          -9.291
REMARK INTER:                  -7.469
REMARK INTRA:                  -1.823
REMARK UNBOUND:                -1.250
REMARK  8 active torsions:
REMARK  status: ('A' for Active; 'I' for Inactive)
REMARK    1  A    between atoms: P_1  and  O3'_9 
REMARK    2  A    between atoms: PA_2  and  O5'_5 
REMARK    3  A    between atoms: PA_2  and  O3A_23 
REMARK    4  A    between atoms: PB_3  and  O3A_23 
REMARK    5  A    between atoms: C5'_4  and  O5'_5 
REMARK    6  A    between atoms: C5'_4  and  C4'_6 
REMARK    7  A    between atoms: C3'_8  and  O3'_9 
REMARK    8  A    between atoms: C1'_12  and  N9_31 
ROOT
HETATM    1  C4' PAP A 125      36.430   4.274  24.974  1.00 30.66     0.178 C 
HETATM    2  O4' PAP A 125      37.813   4.183  25.332  1.00 30.64    -0.331 OA
HETATM    3  C3' PAP A 125      36.331   5.333  23.842  1.00 32.01     0.192 C 
HETATM    4  C2' PAP A 125      37.764   5.339  23.324  1.00 31.03     0.231 C 
HETATM    5  O2' PAP A 125      38.049   6.562  22.609  1.00 29.14    -0.216 OA
HETATM    6  C1' PAP A 125      38.444   5.288  24.706  1.00 29.59     0.241 C 
ENDROOT
BRANCH   1   7
HETATM    7  C5' PAP A 125      36.032   2.896  24.531  1.00 29.07     0.187 C 
BRANCH   7   8
HETATM    8  O5' PAP A 125      37.092   2.049  24.929  1.00 30.13    -0.268 OA
BRANCH   8   9
HETATM    9  PA  PAP A 125      37.771   1.011  23.874  1.00 31.22     0.419 P 
HETATM   10  O1A PAP A 125      39.166   0.770  24.347  1.00 32.37    -0.624 OA
HETATM   11  O2A PAP A 125      36.868  -0.160  23.704  1.00 32.57    -0.624 OA
BRANCH   9  12
HETATM   12  O3A PAP A 125      37.981   1.932  22.438  1.00 29.92    -0.173 OA
BRANCH  12  13
HETATM   13  PB  PAP A 125      39.112   2.105  21.255  1.00 26.94     0.431 P 
HETATM   14  O1B PAP A 125      38.373   2.616  20.082  1.00 24.20    -0.616 OA
HETATM   15  O2B PAP A 125      40.093   3.075  21.849  1.00 26.86    -0.616 OA
HETATM   16  O3B PAP A 125      39.673   0.747  21.061  1.00 28.16    -0.616 OA
ENDBRANCH  12  13
ENDBRANCH   9  12
ENDBRANCH   8   9
ENDBRANCH   7   8
ENDBRANCH   1   7
BRANCH   3  17
HETATM   17  O3' PAP A 125      35.968   6.622  24.415  1.00 36.20    -0.261 OA
BRANCH  17  18
HETATM   18  P   PAP A 125      34.625   7.495  23.826  1.00 39.68     0.423 P 
HETATM   19  O1  PAP A 125      33.558   6.470  23.944  1.00 40.50    -0.617 OA
HETATM   20  O2  PAP A 125      34.526   8.623  24.786  1.00 39.38    -0.617 OA
HETATM   21  O3  PAP A 125      34.988   7.937  22.444  1.00 40.59    -0.617 OA
ENDBRANCH  17  18
ENDBRANCH   3  17
BRANCH   6  22
HETATM   22  N9  PAP A 125      39.885   4.948  24.728  1.00 29.22    -0.270 N 
HETATM   23  C4  PAP A 125      41.027   5.696  24.337  1.00 29.28     0.170 A 
HETATM   24  N3  PAP A 125      41.115   6.964  23.799  1.00 29.66    -0.205 NA
HETATM   25  C5  PAP A 125      42.111   4.865  24.598  1.00 29.93     0.155 A 
HETATM   26  C2  PAP A 125      42.405   7.288  23.545  1.00 28.29     0.202 A 
HETATM   27  N1  PAP A 125      43.541   6.599  23.733  1.00 27.66    -0.202 NA
HETATM   28  C6  PAP A 125      43.449   5.358  24.280  1.00 28.82     0.206 A 
HETATM   29  N6  PAP A 125      44.565   4.663  24.574  1.00 26.39    -0.125 N 
HETATM   30  N7  PAP A 125      41.648   3.623  25.138  1.00 30.19    -0.219 NA
HETATM   31  C8  PAP A 125      40.354   3.741  25.185  1.00 28.80     0.182 A 
ENDBRANCH   6  22
TORSDOF 8
ENDMDL
MODEL 9
REMARK VINA RESULT:    -5.428      6.530      9.788
REMARK INTER + INTRA:          -9.218
REMARK INTER:                  -7.880
REMARK INTRA:                  -1.338
REMARK UNBOUND:                -1.250
REMARK  8 active torsions:
REMARK  status: ('A' for Active; 'I' for Inactive)
REMARK    1  A    between atoms: P_1  and  O3'_9 
REMARK    2  A    between atoms: PA_2  and  O5'_5 
REMARK    3  A    between atoms: PA_2  and  O3A_23 
REMARK    4  A    between atoms: PB_3  and  O3A_23 
REMARK    5  A    between atoms: C5'_4  and  O5'_5 
REMARK    6  A    between atoms: C5'_4  and  C4'_6 
REMARK    7  A    between atoms: C3'_8  and  O3'_9 
REMARK    8  A    between atoms: C1'_12  and  N9_31 
ROOT
HETATM    1  C4' PAP A 125      37.311   6.747  24.359  1.00 30.66     0.178 C 
HETATM    2  O4' PAP A 125      36.825   7.936  24.991  1.00 30.64    -0.331 OA
HETATM    3  C3' PAP A 125      36.064   5.934  23.917  1.00 32.01     0.192 C 
HETATM    4  C2' PAP A 125      35.002   7.026  23.887  1.00 31.03     0.231 C 
HETATM    5  O2' PAP A 125      33.676   6.458  23.975  1.00 29.14    -0.216 OA
HETATM    6  C1' PAP A 125      35.437   7.723  25.191  1.00 29.59     0.241 C 
ENDROOT
BRANCH   1   7
HETATM    7  C5' PAP A 125      38.152   7.213  23.206  1.00 29.07     0.187 C 
BRANCH   7   8
HETATM    8  O5' PAP A 125      38.589   6.036  22.555  1.00 30.13    -0.268 OA
BRANCH   8   9
HETATM    9  PA  PAP A 125      39.942   6.036  21.648  1.00 31.22     0.419 P 
HETATM   10  O1A PAP A 125      39.771   4.967  20.621  1.00 32.37    -0.624 OA
HETATM   11  O2A PAP A 125      40.210   7.426  21.188  1.00 32.57    -0.624 OA
BRANCH   9  12
HETATM   12  O3A PAP A 125      41.158   5.410  22.690  1.00 29.92    -0.173 OA
BRANCH  12  13
HETATM   13  PB  PAP A 125      41.568   5.505  24.281  1.00 26.94     0.431 P 
HETATM   14  O1B PAP A 125      42.957   5.008  24.355  1.00 24.20    -0.616 OA
HETATM   15  O2B PAP A 125      41.407   6.965  24.596  1.00 26.86    -0.616 OA
HETATM   16  O3B PAP A 125      40.587   4.642  24.980  1.00 28.16    -0.616 OA
ENDBRANCH  12  13
ENDBRANCH   9  12
ENDBRANCH   8   9
ENDBRANCH   7   8
ENDBRANCH   1   7
BRANCH   3  17
HETATM   17  O3' PAP A 125      35.761   4.927  24.925  1.00 36.20    -0.261 OA
BRANCH  17  18
HETATM   18  P   PAP A 125      36.286   3.313  24.735  1.00 39.68     0.423 P 
HETATM   19  O1  PAP A 125      36.376   3.226  23.256  1.00 40.50    -0.617 OA
HETATM   20  O2  PAP A 125      37.587   3.310  25.449  1.00 39.38    -0.617 OA
HETATM   21  O3  PAP A 125      35.256   2.458  25.400  1.00 40.59    -0.617 OA
ENDBRANCH  17  18
ENDBRANCH   3  17
BRANCH   6  22
HETATM   22  N9  PAP A 125      34.891   9.077  25.438  1.00 29.22    -0.270 N 
HETATM   23  C4  PAP A 125      35.019   9.946  26.554  1.00 29.28     0.170 A 
HETATM   24  N3  PAP A 125      35.683   9.761  27.750  1.00 29.66    -0.205 NA
HETATM   25  C5  PAP A 125      34.299  11.085  26.211  1.00 29.93     0.155 A 
HETATM   26  C2  PAP A 125      35.528  10.839  28.555  1.00 28.29     0.202 A 
HETATM   27  N1  PAP A 125      34.867  11.992  28.367  1.00 27.66    -0.202 NA
HETATM   28  C6  PAP A 125      34.230  12.175  27.180  1.00 28.82     0.206 A 
HETATM   29  N6  PAP A 125      33.631  13.350  26.907  1.00 26.39    -0.125 N 
HETATM   30  N7  PAP A 125      33.733  10.923  24.906  1.00 30.19    -0.219 NA
HETATM   31  C8  PAP A 125      34.115   9.741  24.521  1.00 28.80     0.182 A 
ENDBRANCH   6  22
TORSDOF 8
ENDMDL
