MODEL 1
REMARK VINA RESULT:    -5.154      0.000      0.000
REMARK INTER + INTRA:          -9.035
REMARK INTER:                  -7.565
REMARK INTRA:                  -1.470
REMARK UNBOUND:                -1.470
REMARK  8 active torsions:
REMARK  status: ('A' for Active; 'I' for Inactive)
REMARK    1  A    between atoms: P_1  and  O3'_9 
REMARK    2  A    between atoms: PA_2  and  O5'_5 
REMARK    3  A    between atoms: PA_2  and  O3A_23 
REMARK    4  A    between atoms: PB_3  and  O3A_23 
REMARK    5  A    between atoms: C5'_4  and  O5'_5 
REMARK    6  A    between atoms: C5'_4  and  C4'_6 
REMARK    7  A    between atoms: C3'_8  and  O3'_9 
REMARK    8  A    between atoms: C1'_12  and  N9_31 
ROOT
HETATM    1  C4' PAP A 125      41.861 -10.429  32.445  1.00 30.66     0.178 C 
HETATM    2  O4' PAP A 125      42.192  -9.183  31.824  1.00 30.64    -0.331 OA
HETATM    3  C3' PAP A 125      41.114 -11.275  31.378  1.00 32.01     0.192 C 
HETATM    4  C2' PAP A 125      41.576 -10.597  30.094  1.00 31.03     0.231 C 
HETATM    5  O2' PAP A 125      40.667 -10.876  29.007  1.00 29.14    -0.216 OA
HETATM    6  C1' PAP A 125      41.454  -9.150  30.613  1.00 29.59     0.241 C 
ENDROOT
BRANCH   1   7
HETATM    7  C5' PAP A 125      43.169 -11.033  32.869  1.00 29.07     0.187 C 
BRANCH   7   8
HETATM    8  O5' PAP A 125      44.169 -10.235  32.267  1.00 30.13    -0.268 OA
BRANCH   8   9
HETATM    9  PA  PAP A 125      45.365 -10.913  31.394  1.00 31.22     0.419 P 
HETATM   10  O1A PAP A 125      44.806 -12.162  30.798  1.00 32.37    -0.624 OA
HETATM   11  O2A PAP A 125      45.935  -9.884  30.482  1.00 32.57    -0.624 OA
BRANCH   9  12
HETATM   12  O3A PAP A 125      46.483 -11.486  32.568  1.00 29.92    -0.173 OA
BRANCH  12  13
HETATM   13  PB  PAP A 125      47.484 -10.851  33.710  1.00 26.94     0.431 P 
HETATM   14  O1B PAP A 125      48.062 -12.016  34.411  1.00 24.20    -0.616 OA
HETATM   15  O2B PAP A 125      48.469 -10.052  32.905  1.00 26.86    -0.616 OA
HETATM   16  O3B PAP A 125      46.608 -10.015  34.564  1.00 28.16    -0.616 OA
ENDBRANCH  12  13
ENDBRANCH   9  12
ENDBRANCH   8   9
ENDBRANCH   7   8
ENDBRANCH   1   7
BRANCH   3  17
HETATM   17  O3' PAP A 125      39.677 -11.131  31.567  1.00 36.20    -0.261 OA
BRANCH  17  18
HETATM   18  P   PAP A 125      38.700 -12.488  31.912  1.00 39.68     0.423 P 
HETATM   19  O1  PAP A 125      39.653 -13.324  32.684  1.00 40.50    -0.617 OA
HETATM   20  O2  PAP A 125      37.593 -11.897  32.704  1.00 39.38    -0.617 OA
HETATM   21  O3  PAP A 125      38.247 -13.024  30.591  1.00 40.59    -0.617 OA
ENDBRANCH  17  18
ENDBRANCH   3  17
BRANCH   6  22
HETATM   22  N9  PAP A 125      42.115  -8.096  29.810  1.00 29.22    -0.270 N 
HETATM   23  C4  PAP A 125      41.921  -6.690  29.776  1.00 29.28     0.170 A 
HETATM   24  N3  PAP A 125      41.034  -5.899  30.479  1.00 29.66    -0.205 NA
HETATM   25  C5  PAP A 125      42.835  -6.221  28.839  1.00 29.93     0.155 A 
HETATM   26  C2  PAP A 125      41.163  -4.600  30.121  1.00 28.29     0.202 A 
HETATM   27  N1  PAP A 125      41.983  -4.005  29.240  1.00 27.66    -0.202 NA
HETATM   28  C6  PAP A 125      42.867  -4.786  28.565  1.00 28.82     0.206 A 
HETATM   29  N6  PAP A 125      43.772  -4.227  27.739  1.00 26.39    -0.125 N 
HETATM   30  N7  PAP A 125      43.580  -7.318  28.299  1.00 30.19    -0.219 NA
HETATM   31  C8  PAP A 125      43.111  -8.368  28.906  1.00 28.80     0.182 A 
ENDBRANCH   6  22
TORSDOF 8
ENDMDL
MODEL 2
REMARK VINA RESULT:    -5.113     10.815     13.128
REMARK INTER + INTRA:          -8.975
REMARK INTER:                  -7.829
REMARK INTRA:                  -1.146
REMARK UNBOUND:                -1.470
REMARK  8 active torsions:
REMARK  status: ('A' for Active; 'I' for Inactive)
REMARK    1  A    between atoms: P_1  and  O3'_9 
REMARK    2  A    between atoms: PA_2  and  O5'_5 
REMARK    3  A    between atoms: PA_2  and  O3A_23 
REMARK    4  A    between atoms: PB_3  and  O3A_23 
REMARK    5  A    between atoms: C5'_4  and  O5'_5 
REMARK    6  A    between atoms: C5'_4  and  C4'_6 
REMARK    7  A    between atoms: C3'_8  and  O3'_9 
REMARK    8  A    between atoms: C1'_12  and  N9_31 
ROOT
HETATM    1  C4' PAP A 125      43.078  -6.003  41.646  1.00 30.66     0.178 C 
HETATM    2  O4' PAP A 125      42.412  -4.738  41.728  1.00 30.64    -0.331 OA
HETATM    3  C3' PAP A 125      44.296  -5.929  42.607  1.00 32.01     0.192 C 
HETATM    4  C2' PAP A 125      43.870  -4.793  43.529  1.00 31.03     0.231 C 
HETATM    5  O2' PAP A 125      45.013  -4.213  44.196  1.00 29.14    -0.216 OA
HETATM    6  C1' PAP A 125      43.303  -3.880  42.423  1.00 29.59     0.241 C 
ENDROOT
BRANCH   1   7
HETATM    7  C5' PAP A 125      42.061  -7.027  42.059  1.00 29.07     0.187 C 
BRANCH   7   8
HETATM    8  O5' PAP A 125      42.007  -7.958  40.996  1.00 30.13    -0.268 OA
BRANCH   8   9
HETATM    9  PA  PAP A 125      40.784  -7.930  39.922  1.00 31.22     0.419 P 
HETATM   10  O1A PAP A 125      41.035  -6.771  39.015  1.00 32.37    -0.624 OA
HETATM   11  O2A PAP A 125      40.643  -9.284  39.320  1.00 32.57    -0.624 OA
BRANCH   9  12
HETATM   12  O3A PAP A 125      39.415  -7.440  40.840  1.00 29.92    -0.173 OA
BRANCH  12  13
HETATM   13  PB  PAP A 125      38.261  -8.145  41.779  1.00 26.94     0.431 P 
HETATM   14  O1B PAP A 125      38.950  -8.509  43.034  1.00 24.20    -0.616 OA
HETATM   15  O2B PAP A 125      37.224  -7.069  41.923  1.00 26.86    -0.616 OA
HETATM   16  O3B PAP A 125      37.792  -9.312  40.996  1.00 28.16    -0.616 OA
ENDBRANCH  12  13
ENDBRANCH   9  12
ENDBRANCH   8   9
ENDBRANCH   7   8
ENDBRANCH   1   7
BRANCH   3  17
HETATM   17  O3' PAP A 125      45.490  -5.578  41.850  1.00 36.20    -0.261 OA
BRANCH  17  18
HETATM   18  P   PAP A 125      46.208  -6.699  40.781  1.00 39.68     0.423 P 
HETATM   19  O1  PAP A 125      45.697  -7.976  41.338  1.00 40.50    -0.617 OA
HETATM   20  O2  PAP A 125      45.634  -6.308  39.469  1.00 39.38    -0.617 OA
HETATM   21  O3  PAP A 125      47.683  -6.468  40.863  1.00 40.59    -0.617 OA
ENDBRANCH  17  18
ENDBRANCH   3  17
BRANCH   6  22
HETATM   22  N9  PAP A 125      42.454  -2.749  42.862  1.00 29.22    -0.270 N 
HETATM   23  C4  PAP A 125      41.666  -1.831  42.119  1.00 29.28     0.170 A 
HETATM   24  N3  PAP A 125      41.483  -1.720  40.755  1.00 29.66    -0.205 NA
HETATM   25  C5  PAP A 125      41.083  -1.001  43.070  1.00 29.93     0.155 A 
HETATM   26  C2  PAP A 125      40.666  -0.679  40.465  1.00 28.29     0.202 A 
HETATM   27  N1  PAP A 125      40.042   0.201  41.263  1.00 27.66    -0.202 NA
HETATM   28  C6  PAP A 125      40.212   0.075  42.605  1.00 28.82     0.206 A 
HETATM   29  N6  PAP A 125      39.536   0.876  43.452  1.00 26.39    -0.125 N 
HETATM   30  N7  PAP A 125      41.505  -1.397  44.380  1.00 30.19    -0.219 NA
HETATM   31  C8  PAP A 125      42.294  -2.411  44.183  1.00 28.80     0.182 A 
ENDBRANCH   6  22
TORSDOF 8
ENDMDL
MODEL 3
REMARK VINA RESULT:    -4.996     11.442     13.819
REMARK INTER + INTRA:          -8.803
REMARK INTER:                  -7.961
REMARK INTRA:                  -0.842
REMARK UNBOUND:                -1.470
REMARK  8 active torsions:
REMARK  status: ('A' for Active; 'I' for Inactive)
REMARK    1  A    between atoms: P_1  and  O3'_9 
REMARK    2  A    between atoms: PA_2  and  O5'_5 
REMARK    3  A    between atoms: PA_2  and  O3A_23 
REMARK    4  A    between atoms: PB_3  and  O3A_23 
REMARK    5  A    between atoms: C5'_4  and  O5'_5 
REMARK    6  A    between atoms: C5'_4  and  C4'_6 
REMARK    7  A    between atoms: C3'_8  and  O3'_9 
REMARK    8  A    between atoms: C1'_12  and  N9_31 
ROOT
HETATM    1  C4' PAP A 125      44.079  -5.271  42.761  1.00 30.66     0.178 C 
HETATM    2  O4' PAP A 125      43.300  -4.084  42.582  1.00 30.64    -0.331 OA
HETATM    3  C3' PAP A 125      44.564  -5.268  44.237  1.00 32.01     0.192 C 
HETATM    4  C2' PAP A 125      43.551  -4.324  44.873  1.00 31.03     0.231 C 
HETATM    5  O2' PAP A 125      44.059  -3.782  46.112  1.00 29.14    -0.216 OA
HETATM    6  C1' PAP A 125      43.543  -3.289  43.731  1.00 29.59     0.241 C 
ENDROOT
BRANCH   1   7
HETATM    7  C5' PAP A 125      43.159  -6.414  42.443  1.00 29.07     0.187 C 
BRANCH   7   8
HETATM    8  O5' PAP A 125      43.894  -7.266  41.586  1.00 30.13    -0.268 OA
BRANCH   8   9
HETATM    9  PA  PAP A 125      43.639  -7.254  39.978  1.00 31.22     0.419 P 
HETATM   10  O1A PAP A 125      43.093  -5.907  39.640  1.00 32.37    -0.624 OA
HETATM   11  O2A PAP A 125      44.879  -7.709  39.293  1.00 32.57    -0.624 OA
BRANCH   9  12
HETATM   12  O3A PAP A 125      42.300  -8.307  39.746  1.00 29.92    -0.173 OA
BRANCH  12  13
HETATM   13  PB  PAP A 125      40.662  -8.190  39.633  1.00 26.94     0.431 P 
HETATM   14  O1B PAP A 125      40.406  -7.608  38.299  1.00 24.20    -0.616 OA
HETATM   15  O2B PAP A 125      40.199  -9.609  39.797  1.00 26.86    -0.616 OA
HETATM   16  O3B PAP A 125      40.263  -7.308  40.755  1.00 28.16    -0.616 OA
ENDBRANCH  12  13
ENDBRANCH   9  12
ENDBRANCH   8   9
ENDBRANCH   7   8
ENDBRANCH   1   7
BRANCH   3  17
HETATM   17  O3' PAP A 125      45.912  -4.722  44.302  1.00 36.20    -0.261 OA
BRANCH  17  18
HETATM   18  P   PAP A 125      47.193  -5.632  44.970  1.00 39.68     0.423 P 
HETATM   19  O1  PAP A 125      47.952  -4.565  45.670  1.00 40.50    -0.617 OA
HETATM   20  O2  PAP A 125      46.483  -6.588  45.857  1.00 39.38    -0.617 OA
HETATM   21  O3  PAP A 125      47.874  -6.302  43.820  1.00 40.59    -0.617 OA
ENDBRANCH  17  18
ENDBRANCH   3  17
BRANCH   6  22
HETATM   22  N9  PAP A 125      42.439  -2.302  43.734  1.00 29.22    -0.270 N 
HETATM   23  C4  PAP A 125      41.737  -1.684  42.665  1.00 29.28     0.170 A 
HETATM   24  N3  PAP A 125      41.902  -1.817  41.301  1.00 29.66    -0.205 NA
HETATM   25  C5  PAP A 125      40.800  -0.858  43.277  1.00 29.93     0.155 A 
HETATM   26  C2  PAP A 125      41.034  -1.020  40.634  1.00 28.29     0.202 A 
HETATM   27  N1  PAP A 125      40.091  -0.176  41.080  1.00 27.66    -0.202 NA
HETATM   28  C6  PAP A 125      39.921  -0.063  42.423  1.00 28.82     0.206 A 
HETATM   29  N6  PAP A 125      38.928   0.700  42.919  1.00 26.39    -0.125 N 
HETATM   30  N7  PAP A 125      40.922  -0.960  44.699  1.00 30.19    -0.219 NA
HETATM   31  C8  PAP A 125      41.887  -1.810  44.891  1.00 28.80     0.182 A 
ENDBRANCH   6  22
TORSDOF 8
ENDMDL
MODEL 4
REMARK VINA RESULT:    -4.810     17.317     19.287
REMARK INTER + INTRA:          -8.530
REMARK INTER:                  -7.075
REMARK INTRA:                  -1.456
REMARK UNBOUND:                -1.470
REMARK  8 active torsions:
REMARK  status: ('A' for Active; 'I' for Inactive)
REMARK    1  A    between atoms: P_1  and  O3'_9 
REMARK    2  A    between atoms: PA_2  and  O5'_5 
REMARK    3  A    between atoms: PA_2  and  O3A_23 
REMARK    4  A    between atoms: PB_3  and  O3A_23 
REMARK    5  A    between atoms: C5'_4  and  O5'_5 
REMARK    6  A    between atoms: C5'_4  and  C4'_6 
REMARK    7  A    between atoms: C3'_8  and  O3'_9 
REMARK    8  A    between atoms: C1'_12  and  N9_31 
ROOT
HETATM    1  C4' PAP A 125      39.630   2.723  44.146  1.00 30.66     0.178 C 
HETATM    2  O4' PAP A 125      40.186   4.021  43.907  1.00 30.64    -0.331 OA
HETATM    3  C3' PAP A 125      40.755   1.869  44.792  1.00 32.01     0.192 C 
HETATM    4  C2' PAP A 125      41.675   2.958  45.329  1.00 31.03     0.231 C 
HETATM    5  O2' PAP A 125      43.010   2.446  45.543  1.00 29.14    -0.216 OA
HETATM    6  C1' PAP A 125      41.584   3.880  44.097  1.00 29.59     0.241 C 
ENDROOT
BRANCH   1   7
HETATM    7  C5' PAP A 125      38.458   2.944  45.058  1.00 29.07     0.187 C 
BRANCH   7   8
HETATM    8  O5' PAP A 125      37.687   1.761  44.978  1.00 30.13    -0.268 OA
BRANCH   8   9
HETATM    9  PA  PAP A 125      37.020   1.108  46.312  1.00 31.22     0.419 P 
HETATM   10  O1A PAP A 125      38.106   0.362  47.014  1.00 32.37    -0.624 OA
HETATM   11  O2A PAP A 125      36.295   2.173  47.056  1.00 32.57    -0.624 OA
BRANCH   9  12
HETATM   12  O3A PAP A 125      35.992  -0.135  45.715  1.00 29.92    -0.173 OA
BRANCH  12  13
HETATM   13  PB  PAP A 125      36.139  -1.531  44.856  1.00 26.94     0.431 P 
HETATM   14  O1B PAP A 125      34.758  -2.026  44.680  1.00 24.20    -0.616 OA
HETATM   15  O2B PAP A 125      36.814  -1.091  43.589  1.00 26.86    -0.616 OA
HETATM   16  O3B PAP A 125      36.985  -2.410  45.698  1.00 28.16    -0.616 OA
ENDBRANCH  12  13
ENDBRANCH   9  12
ENDBRANCH   8   9
ENDBRANCH   7   8
ENDBRANCH   1   7
BRANCH   3  17
HETATM   17  O3' PAP A 125      41.414   1.078  43.761  1.00 36.20    -0.261 OA
BRANCH  17  18
HETATM   18  P   PAP A 125      40.805  -0.452  43.309  1.00 39.68     0.423 P 
HETATM   19  O1  PAP A 125      42.069  -1.202  43.108  1.00 40.50    -0.617 OA
HETATM   20  O2  PAP A 125      40.016  -0.851  44.502  1.00 39.38    -0.617 OA
HETATM   21  O3  PAP A 125      39.955  -0.223  42.101  1.00 40.59    -0.617 OA
ENDBRANCH  17  18
ENDBRANCH   3  17
BRANCH   6  22
HETATM   22  N9  PAP A 125      42.073   5.268  44.265  1.00 29.22    -0.270 N 
HETATM   23  C4  PAP A 125      43.389   5.800  44.263  1.00 29.28     0.170 A 
HETATM   24  N3  PAP A 125      44.605   5.161  44.122  1.00 29.66    -0.205 NA
HETATM   25  C5  PAP A 125      43.227   7.168  44.454  1.00 29.93     0.155 A 
HETATM   26  C2  PAP A 125      45.625   6.048  44.208  1.00 28.29     0.202 A 
HETATM   27  N1  PAP A 125      45.625   7.376  44.394  1.00 27.66    -0.202 NA
HETATM   28  C6  PAP A 125      44.424   8.002  44.514  1.00 28.82     0.206 A 
HETATM   29  N6  PAP A 125      44.367   9.345  44.610  1.00 26.39    -0.125 N 
HETATM   30  N7  PAP A 125      41.834   7.477  44.575  1.00 30.19    -0.219 NA
HETATM   31  C8  PAP A 125      41.228   6.333  44.456  1.00 28.80     0.182 A 
ENDBRANCH   6  22
TORSDOF 8
ENDMDL
MODEL 5
REMARK VINA RESULT:    -4.725     15.832     17.428
REMARK INTER + INTRA:          -8.405
REMARK INTER:                  -7.197
REMARK INTRA:                  -1.208
REMARK UNBOUND:                -1.470
REMARK  8 active torsions:
REMARK  status: ('A' for Active; 'I' for Inactive)
REMARK    1  A    between atoms: P_1  and  O3'_9 
REMARK    2  A    between atoms: PA_2  and  O5'_5 
REMARK    3  A    between atoms: PA_2  and  O3A_23 
REMARK    4  A    between atoms: PB_3  and  O3A_23 
REMARK    5  A    between atoms: C5'_4  and  O5'_5 
REMARK    6  A    between atoms: C5'_4  and  C4'_6 
REMARK    7  A    between atoms: C3'_8  and  O3'_9 
REMARK    8  A    between atoms: C1'_12  and  N9_31 
ROOT
HETATM    1  C4' PAP A 125      41.834   0.659  44.151  1.00 30.66     0.178 C 
HETATM    2  O4' PAP A 125      42.614  -0.429  43.643  1.00 30.64    -0.331 OA
HETATM    3  C3' PAP A 125      40.913   0.070  45.254  1.00 32.01     0.192 C 
HETATM    4  C2' PAP A 125      41.664  -1.207  45.609  1.00 31.03     0.231 C 
HETATM    5  O2' PAP A 125      40.787  -2.160  46.250  1.00 29.14    -0.216 OA
HETATM    6  C1' PAP A 125      42.014  -1.605  44.161  1.00 29.59     0.241 C 
ENDROOT
BRANCH   1   7
HETATM    7  C5' PAP A 125      42.823   1.659  44.677  1.00 29.07     0.187 C 
BRANCH   7   8
HETATM    8  O5' PAP A 125      42.663   2.810  43.872  1.00 30.13    -0.268 OA
BRANCH   8   9
HETATM    9  PA  PAP A 125      41.813   4.092  44.407  1.00 31.22     0.419 P 
HETATM   10  O1A PAP A 125      40.678   4.282  43.457  1.00 32.37    -0.624 OA
HETATM   11  O2A PAP A 125      41.505   3.895  45.849  1.00 32.57    -0.624 OA
BRANCH   9  12
HETATM   12  O3A PAP A 125      42.832   5.443  44.100  1.00 29.92    -0.173 OA
BRANCH  12  13
HETATM   13  PB  PAP A 125      44.355   5.934  44.486  1.00 26.94     0.431 P 
HETATM   14  O1B PAP A 125      45.037   6.140  43.192  1.00 24.20    -0.616 OA
HETATM   15  O2B PAP A 125      44.125   7.189  45.280  1.00 26.86    -0.616 OA
HETATM   16  O3B PAP A 125      44.921   4.826  45.290  1.00 28.16    -0.616 OA
ENDBRANCH  12  13
ENDBRANCH   9  12
ENDBRANCH   8   9
ENDBRANCH   7   8
ENDBRANCH   1   7
BRANCH   3  17
HETATM   17  O3' PAP A 125      39.605  -0.223  44.686  1.00 36.20    -0.261 OA
BRANCH  17  18
HETATM   18  P   PAP A 125      38.574   1.035  44.168  1.00 39.68     0.423 P 
HETATM   19  O1  PAP A 125      39.106   1.283  42.805  1.00 40.50    -0.617 OA
HETATM   20  O2  PAP A 125      37.234   0.397  44.217  1.00 39.38    -0.617 OA
HETATM   21  O3  PAP A 125      38.728   2.139  45.165  1.00 40.59    -0.617 OA
ENDBRANCH  17  18
ENDBRANCH   3  17
BRANCH   6  22
HETATM   22  N9  PAP A 125      43.049  -2.651  43.989  1.00 29.22    -0.270 N 
HETATM   23  C4  PAP A 125      43.281  -3.568  42.930  1.00 29.28     0.170 A 
HETATM   24  N3  PAP A 125      42.583  -3.762  41.754  1.00 29.66    -0.205 NA
HETATM   25  C5  PAP A 125      44.401  -4.295  43.319  1.00 29.93     0.155 A 
HETATM   26  C2  PAP A 125      43.131  -4.768  41.033  1.00 28.29     0.202 A 
HETATM   27  N1  PAP A 125      44.191  -5.553  41.278  1.00 27.66    -0.202 NA
HETATM   28  C6  PAP A 125      44.884  -5.346  42.428  1.00 28.82     0.206 A 
HETATM   29  N6  PAP A 125      46.009  -6.045  42.676  1.00 26.39    -0.125 N 
HETATM   30  N7  PAP A 125      44.853  -3.836  44.598  1.00 30.19    -0.219 NA
HETATM   31  C8  PAP A 125      44.026  -2.887  44.923  1.00 28.80     0.182 A 
ENDBRANCH   6  22
TORSDOF 8
ENDMDL
MODEL 6
REMARK VINA RESULT:    -4.698     11.769     14.104
REMARK INTER + INTRA:          -8.365
REMARK INTER:                  -6.978
REMARK INTRA:                  -1.387
REMARK UNBOUND:                -1.470
REMARK  8 active torsions:
REMARK  status: ('A' for Active; 'I' for Inactive)
REMARK    1  A    between atoms: P_1  and  O3'_9 
REMARK    2  A    between atoms: PA_2  and  O5'_5 
REMARK    3  A    between atoms: PA_2  and  O3A_23 
REMARK    4  A    between atoms: PB_3  and  O3A_23 
REMARK    5  A    between atoms: C5'_4  and  O5'_5 
REMARK    6  A    between atoms: C5'_4  and  C4'_6 
REMARK    7  A    between atoms: C3'_8  and  O3'_9 
REMARK    8  A    between atoms: C1'_12  and  N9_31 
ROOT
HETATM    1  C4' PAP A 125      43.669  -5.645  44.013  1.00 30.66     0.178 C 
HETATM    2  O4' PAP A 125      42.887  -4.535  43.563  1.00 30.64    -0.331 OA
HETATM    3  C3' PAP A 125      44.575  -5.117  45.159  1.00 32.01     0.192 C 
HETATM    4  C2' PAP A 125      43.812  -3.867  45.580  1.00 31.03     0.231 C 
HETATM    5  O2' PAP A 125      44.676  -2.949  46.286  1.00 29.14    -0.216 OA
HETATM    6  C1' PAP A 125      43.474  -3.387  44.155  1.00 29.59     0.241 C 
ENDROOT
BRANCH   1   7
HETATM    7  C5' PAP A 125      42.682  -6.681  44.469  1.00 29.07     0.187 C 
BRANCH   7   8
HETATM    8  O5' PAP A 125      43.057  -7.877  43.814  1.00 30.13    -0.268 OA
BRANCH   8   9
HETATM    9  PA  PAP A 125      42.443  -8.256  42.354  1.00 31.22     0.419 P 
HETATM   10  O1A PAP A 125      42.597  -9.732  42.193  1.00 32.37    -0.624 OA
HETATM   11  O2A PAP A 125      41.080  -7.669  42.240  1.00 32.57    -0.624 OA
BRANCH   9  12
HETATM   12  O3A PAP A 125      43.568  -7.603  41.230  1.00 29.92    -0.173 OA
BRANCH  12  13
HETATM   13  PB  PAP A 125      43.535  -6.675  39.871  1.00 26.94     0.431 P 
HETATM   14  O1B PAP A 125      42.472  -7.259  39.028  1.00 24.20    -0.616 OA
HETATM   15  O2B PAP A 125      43.235  -5.300  40.395  1.00 26.86    -0.616 OA
HETATM   16  O3B PAP A 125      44.893  -6.799  39.290  1.00 28.16    -0.616 OA
ENDBRANCH  12  13
ENDBRANCH   9  12
ENDBRANCH   8   9
ENDBRANCH   7   8
ENDBRANCH   1   7
BRANCH   3  17
HETATM   17  O3' PAP A 125      45.887  -4.783  44.623  1.00 36.20    -0.261 OA
BRANCH  17  18
HETATM   18  P   PAP A 125      47.110  -5.968  44.499  1.00 39.68     0.423 P 
HETATM   19  O1  PAP A 125      47.136  -6.184  43.031  1.00 40.50    -0.617 OA
HETATM   20  O2  PAP A 125      48.296  -5.269  45.056  1.00 39.38    -0.617 OA
HETATM   21  O3  PAP A 125      46.664  -7.119  45.344  1.00 40.59    -0.617 OA
ENDBRANCH  17  18
ENDBRANCH   3  17
BRANCH   6  22
HETATM   22  N9  PAP A 125      42.434  -2.340  44.034  1.00 29.22    -0.270 N 
HETATM   23  C4  PAP A 125      41.824  -1.758  42.891  1.00 29.28     0.170 A 
HETATM   24  N3  PAP A 125      42.048  -1.994  41.549  1.00 29.66    -0.205 NA
HETATM   25  C5  PAP A 125      40.912  -0.839  43.395  1.00 29.93     0.155 A 
HETATM   26  C2  PAP A 125      41.265  -1.196  40.785  1.00 28.29     0.202 A 
HETATM   27  N1  PAP A 125      40.355  -0.270  41.123  1.00 27.66    -0.202 NA
HETATM   28  C6  PAP A 125      40.126  -0.055  42.446  1.00 28.82     0.206 A 
HETATM   29  N6  PAP A 125      39.158   0.797  42.836  1.00 26.39    -0.125 N 
HETATM   30  N7  PAP A 125      40.957  -0.849  44.826  1.00 30.19    -0.219 NA
HETATM   31  C8  PAP A 125      41.857  -1.738  45.124  1.00 28.80     0.182 A 
ENDBRANCH   6  22
TORSDOF 8
ENDMDL
MODEL 7
REMARK VINA RESULT:    -4.680      1.893      3.435
REMARK INTER + INTRA:          -8.339
REMARK INTER:                  -6.819
REMARK INTRA:                  -1.520
REMARK UNBOUND:                -1.470
REMARK  8 active torsions:
REMARK  status: ('A' for Active; 'I' for Inactive)
REMARK    1  A    between atoms: P_1  and  O3'_9 
REMARK    2  A    between atoms: PA_2  and  O5'_5 
REMARK    3  A    between atoms: PA_2  and  O3A_23 
REMARK    4  A    between atoms: PB_3  and  O3A_23 
REMARK    5  A    between atoms: C5'_4  and  O5'_5 
REMARK    6  A    between atoms: C5'_4  and  C4'_6 
REMARK    7  A    between atoms: C3'_8  and  O3'_9 
REMARK    8  A    between atoms: C1'_12  and  N9_31 
ROOT
HETATM    1  C4' PAP A 125      41.953 -10.485  32.261  1.00 30.66     0.178 C 
HETATM    2  O4' PAP A 125      42.285  -9.213  31.694  1.00 30.64    -0.331 OA
HETATM    3  C3' PAP A 125      41.187 -11.275  31.165  1.00 32.01     0.192 C 
HETATM    4  C2' PAP A 125      41.638 -10.541  29.908  1.00 31.03     0.231 C 
HETATM    5  O2' PAP A 125      40.713 -10.763  28.821  1.00 29.14    -0.216 OA
HETATM    6  C1' PAP A 125      41.533  -9.119  30.495  1.00 29.59     0.241 C 
ENDROOT
BRANCH   1   7
HETATM    7  C5' PAP A 125      43.261 -11.116  32.639  1.00 29.07     0.187 C 
BRANCH   7   8
HETATM    8  O5' PAP A 125      43.065 -12.510  32.499  1.00 30.13    -0.268 OA
BRANCH   8   9
HETATM    9  PA  PAP A 125      44.138 -13.426  31.686  1.00 31.22     0.419 P 
HETATM   10  O1A PAP A 125      44.448 -12.701  30.419  1.00 32.37    -0.624 OA
HETATM   11  O2A PAP A 125      45.262 -13.772  32.598  1.00 32.57    -0.624 OA
BRANCH   9  12
HETATM   12  O3A PAP A 125      43.232 -14.791  31.165  1.00 29.92    -0.173 OA
BRANCH  12  13
HETATM   13  PB  PAP A 125      42.448 -15.287  29.805  1.00 26.94     0.431 P 
HETATM   14  O1B PAP A 125      43.509 -15.486  28.796  1.00 24.20    -0.616 OA
HETATM   15  O2B PAP A 125      41.755 -16.545  30.242  1.00 26.86    -0.616 OA
HETATM   16  O3B PAP A 125      41.514 -14.184  29.479  1.00 28.16    -0.616 OA
ENDBRANCH  12  13
ENDBRANCH   9  12
ENDBRANCH   8   9
ENDBRANCH   7   8
ENDBRANCH   1   7
BRANCH   3  17
HETATM   17  O3' PAP A 125      39.753 -11.132  31.378  1.00 36.20    -0.261 OA
BRANCH  17  18
HETATM   18  P   PAP A 125      38.784 -12.487  31.750  1.00 39.68     0.423 P 
HETATM   19  O1  PAP A 125      37.711 -11.845  32.550  1.00 40.50    -0.617 OA
HETATM   20  O2  PAP A 125      38.371 -12.968  30.408  1.00 39.38    -0.617 OA
HETATM   21  O3  PAP A 125      39.674 -13.453  32.465  1.00 40.59    -0.617 OA
ENDBRANCH  17  18
ENDBRANCH   3  17
BRANCH   6  22
HETATM   22  N9  PAP A 125      42.190  -8.033  29.734  1.00 29.22    -0.270 N 
HETATM   23  C4  PAP A 125      42.004  -6.625  29.766  1.00 29.28     0.170 A 
HETATM   24  N3  PAP A 125      41.128  -5.863  30.514  1.00 29.66    -0.205 NA
HETATM   25  C5  PAP A 125      42.910  -6.119  28.842  1.00 29.93     0.155 A 
HETATM   26  C2  PAP A 125      41.261  -4.549  30.214  1.00 28.29     0.202 A 
HETATM   27  N1  PAP A 125      42.075  -3.920  29.353  1.00 27.66    -0.202 NA
HETATM   28  C6  PAP A 125      42.947  -4.674  28.633  1.00 28.82     0.206 A 
HETATM   29  N6  PAP A 125      43.846  -4.082  27.824  1.00 26.39    -0.125 N 
HETATM   30  N7  PAP A 125      43.643  -7.194  28.245  1.00 30.19    -0.219 NA
HETATM   31  C8  PAP A 125      43.175  -8.268  28.808  1.00 28.80     0.182 A 
ENDBRANCH   6  22
TORSDOF 8
ENDMDL
MODEL 8
REMARK VINA RESULT:    -4.632     18.714     21.101
REMARK INTER + INTRA:          -8.268
REMARK INTER:                  -7.249
REMARK INTRA:                  -1.019
REMARK UNBOUND:                -1.470
REMARK  8 active torsions:
REMARK  status: ('A' for Active; 'I' for Inactive)
REMARK    1  A    between atoms: P_1  and  O3'_9 
REMARK    2  A    between atoms: PA_2  and  O5'_5 
REMARK    3  A    between atoms: PA_2  and  O3A_23 
REMARK    4  A    between atoms: PB_3  and  O3A_23 
REMARK    5  A    between atoms: C5'_4  and  O5'_5 
REMARK    6  A    between atoms: C5'_4  and  C4'_6 
REMARK    7  A    between atoms: C3'_8  and  O3'_9 
REMARK    8  A    between atoms: C1'_12  and  N9_31 
ROOT
HETATM    1  C4' PAP A 125      41.239   5.967  44.251  1.00 30.66     0.178 C 
HETATM    2  O4' PAP A 125      40.078   6.601  43.704  1.00 30.64    -0.331 OA
HETATM    3  C3' PAP A 125      42.061   7.078  44.961  1.00 32.01     0.192 C 
HETATM    4  C2' PAP A 125      40.987   8.136  45.184  1.00 31.03     0.231 C 
HETATM    5  O2' PAP A 125      41.581   9.438  45.385  1.00 29.14    -0.216 OA
HETATM    6  C1' PAP A 125      40.321   7.995  43.801  1.00 29.59     0.241 C 
ENDROOT
BRANCH   1   7
HETATM    7  C5' PAP A 125      40.725   4.918  45.193  1.00 29.07     0.187 C 
BRANCH   7   8
HETATM    8  O5' PAP A 125      40.283   3.854  44.373  1.00 30.13    -0.268 OA
BRANCH   8   9
HETATM    9  PA  PAP A 125      40.857   2.345  44.582  1.00 31.22     0.419 P 
HETATM   10  O1A PAP A 125      42.301   2.378  44.207  1.00 32.37    -0.624 OA
HETATM   11  O2A PAP A 125      40.489   1.877  45.947  1.00 32.57    -0.624 OA
BRANCH   9  12
HETATM   12  O3A PAP A 125      40.129   1.428  43.323  1.00 29.92    -0.173 OA
BRANCH  12  13
HETATM   13  PB  PAP A 125      39.753  -0.145  43.021  1.00 26.94     0.431 P 
HETATM   14  O1B PAP A 125      40.739  -0.935  43.786  1.00 24.20    -0.616 OA
HETATM   15  O2B PAP A 125      38.338  -0.266  43.511  1.00 26.86    -0.616 OA
HETATM   16  O3B PAP A 125      39.880  -0.294  41.552  1.00 28.16    -0.616 OA
ENDBRANCH  12  13
ENDBRANCH   9  12
ENDBRANCH   8   9
ENDBRANCH   7   8
ENDBRANCH   1   7
BRANCH   3  17
HETATM   17  O3' PAP A 125      43.102   7.558  44.063  1.00 36.20    -0.261 OA
BRANCH  17  18
HETATM   18  P   PAP A 125      44.726   7.070  44.266  1.00 39.68     0.423 P 
HETATM   19  O1  PAP A 125      44.638   6.357  45.565  1.00 40.50    -0.617 OA
HETATM   20  O2  PAP A 125      44.953   6.203  43.083  1.00 39.38    -0.617 OA
HETATM   21  O3  PAP A 125      45.544   8.321  44.236  1.00 40.59    -0.617 OA
ENDBRANCH  17  18
ENDBRANCH   3  17
BRANCH   6  22
HETATM   22  N9  PAP A 125      38.985   8.613  43.638  1.00 29.22    -0.270 N 
HETATM   23  C4  PAP A 125      38.432   9.373  42.574  1.00 29.28     0.170 A 
HETATM   24  N3  PAP A 125      39.000   9.776  41.382  1.00 29.66    -0.205 NA
HETATM   25  C5  PAP A 125      37.135   9.672  42.979  1.00 29.93     0.155 A 
HETATM   26  C2  PAP A 125      38.125  10.516  40.661  1.00 28.29     0.202 A 
HETATM   27  N1  PAP A 125      36.861  10.888  40.919  1.00 27.66    -0.202 NA
HETATM   28  C6  PAP A 125      36.302  10.473  42.086  1.00 28.82     0.206 A 
HETATM   29  N6  PAP A 125      35.009  10.742  42.350  1.00 26.39    -0.125 N 
HETATM   30  N7  PAP A 125      36.891   9.108  44.272  1.00 30.19    -0.219 NA
HETATM   31  C8  PAP A 125      38.001   8.512  44.590  1.00 28.80     0.182 A 
ENDBRANCH   6  22
TORSDOF 8
ENDMDL
MODEL 9
REMARK VINA RESULT:    -4.559     18.194     20.582
REMARK INTER + INTRA:          -8.162
REMARK INTER:                  -6.911
REMARK INTRA:                  -1.252
REMARK UNBOUND:                -1.470
REMARK  8 active torsions:
REMARK  status: ('A' for Active; 'I' for Inactive)
REMARK    1  A    between atoms: P_1  and  O3'_9 
REMARK    2  A    between atoms: PA_2  and  O5'_5 
REMARK    3  A    between atoms: PA_2  and  O3A_23 
REMARK    4  A    between atoms: PB_3  and  O3A_23 
REMARK    5  A    between atoms: C5'_4  and  O5'_5 
REMARK    6  A    between atoms: C5'_4  and  C4'_6 
REMARK    7  A    between atoms: C3'_8  and  O3'_9 
REMARK    8  A    between atoms: C1'_12  and  N9_31 
ROOT
HETATM    1  C4' PAP A 125      42.529   4.550  44.105  1.00 30.66     0.178 C 
HETATM    2  O4' PAP A 125      41.364   5.339  43.845  1.00 30.64    -0.331 OA
HETATM    3  C3' PAP A 125      43.365   5.322  45.162  1.00 32.01     0.192 C 
HETATM    4  C2' PAP A 125      42.300   6.224  45.772  1.00 31.03     0.231 C 
HETATM    5  O2' PAP A 125      42.901   7.361  46.430  1.00 29.14    -0.216 OA
HETATM    6  C1' PAP A 125      41.615   6.601  44.443  1.00 29.59     0.241 C 
ENDROOT
BRANCH   1   7
HETATM    7  C5' PAP A 125      42.022   3.227  44.603  1.00 29.07     0.187 C 
BRANCH   7   8
HETATM    8  O5' PAP A 125      40.638   3.218  44.313  1.00 30.13    -0.268 OA
BRANCH   8   9
HETATM    9  PA  PAP A 125      39.722   1.917  44.658  1.00 31.22     0.419 P 
HETATM   10  O1A PAP A 125      40.354   1.245  45.832  1.00 32.37    -0.624 OA
HETATM   11  O2A PAP A 125      38.301   2.345  44.768  1.00 32.57    -0.624 OA
BRANCH   9  12
HETATM   12  O3A PAP A 125      40.013   0.828  43.360  1.00 29.92    -0.173 OA
BRANCH  12  13
HETATM   13  PB  PAP A 125      41.011  -0.440  43.032  1.00 26.94     0.431 P 
HETATM   14  O1B PAP A 125      42.378   0.118  43.084  1.00 24.20    -0.616 OA
HETATM   15  O2B PAP A 125      40.694  -1.424  44.122  1.00 26.86    -0.616 OA
HETATM   16  O3B PAP A 125      40.607  -0.906  41.685  1.00 28.16    -0.616 OA
ENDBRANCH  12  13
ENDBRANCH   9  12
ENDBRANCH   8   9
ENDBRANCH   7   8
ENDBRANCH   1   7
BRANCH   3  17
HETATM   17  O3' PAP A 125      44.397   6.099  44.489  1.00 36.20    -0.261 OA
BRANCH  17  18
HETATM   18  P   PAP A 125      46.049   5.849  44.840  1.00 39.68     0.423 P 
HETATM   19  O1  PAP A 125      46.424   7.185  45.365  1.00 40.50    -0.617 OA
HETATM   20  O2  PAP A 125      46.004   4.763  45.851  1.00 39.38    -0.617 OA
HETATM   21  O3  PAP A 125      46.689   5.422  43.557  1.00 40.59    -0.617 OA
ENDBRANCH  17  18
ENDBRANCH   3  17
BRANCH   6  22
HETATM   22  N9  PAP A 125      40.280   7.234  44.537  1.00 29.22    -0.270 N 
HETATM   23  C4  PAP A 125      39.564   8.043  43.615  1.00 29.28     0.170 A 
HETATM   24  N3  PAP A 125      39.925   8.491  42.361  1.00 29.66    -0.205 NA
HETATM   25  C5  PAP A 125      38.360   8.333  44.248  1.00 29.93     0.155 A 
HETATM   26  C2  PAP A 125      38.951   9.268  41.830  1.00 28.29     0.202 A 
HETATM   27  N1  PAP A 125      37.756   9.637  42.316  1.00 27.66    -0.202 NA
HETATM   28  C6  PAP A 125      37.398   9.177  43.544  1.00 28.82     0.206 A 
HETATM   29  N6  PAP A 125      36.172   9.444  44.036  1.00 26.39    -0.125 N 
HETATM   30  N7  PAP A 125      38.332   7.717  45.540  1.00 30.19    -0.219 NA
HETATM   31  C8  PAP A 125      39.472   7.100  45.639  1.00 28.80     0.182 A 
ENDBRANCH   6  22
TORSDOF 8
ENDMDL
