MODEL 1
REMARK VINA RESULT:    -5.306      0.000      0.000
REMARK INTER + INTRA:          -9.220
REMARK INTER:                  -7.788
REMARK INTRA:                  -1.432
REMARK UNBOUND:                -1.432
REMARK  8 active torsions:
REMARK  status: ('A' for Active; 'I' for Inactive)
REMARK    1  A    between atoms: P_1  and  O3'_9 
REMARK    2  A    between atoms: PA_2  and  O5'_5 
REMARK    3  A    between atoms: PA_2  and  O3A_23 
REMARK    4  A    between atoms: PB_3  and  O3A_23 
REMARK    5  A    between atoms: C5'_4  and  O5'_5 
REMARK    6  A    between atoms: C5'_4  and  C4'_6 
REMARK    7  A    between atoms: C3'_8  and  O3'_9 
REMARK    8  A    between atoms: C1'_12  and  N9_31 
ROOT
HETATM    1  C4' PAP A 125      37.914  -7.409  19.737  1.00 30.66     0.178 C 
HETATM    2  O4' PAP A 125      37.240  -6.558  18.805  1.00 30.64    -0.331 OA
HETATM    3  C3' PAP A 125      38.823  -8.353  18.904  1.00 32.01     0.192 C 
HETATM    4  C2' PAP A 125      38.951  -7.563  17.607  1.00 31.03     0.231 C 
HETATM    5  O2' PAP A 125      39.338  -8.424  16.514  1.00 29.14    -0.216 OA
HETATM    6  C1' PAP A 125      37.475  -7.127  17.527  1.00 29.59     0.241 C 
ENDROOT
BRANCH   1   7
HETATM    7  C5' PAP A 125      38.685  -6.492  20.642  1.00 29.07     0.187 C 
BRANCH   7   8
HETATM    8  O5' PAP A 125      37.832  -5.390  20.882  1.00 30.13    -0.268 OA
BRANCH   8   9
HETATM    9  PA  PAP A 125      37.783  -4.675  22.344  1.00 31.22     0.419 P 
HETATM   10  O1A PAP A 125      36.353  -4.347  22.615  1.00 32.37    -0.624 OA
HETATM   11  O2A PAP A 125      38.511  -5.531  23.321  1.00 32.57    -0.624 OA
BRANCH   9  12
HETATM   12  O3A PAP A 125      38.515  -3.139  22.098  1.00 29.92    -0.173 OA
BRANCH  12  13
HETATM   13  PB  PAP A 125      39.968  -2.546  21.604  1.00 26.94     0.431 P 
HETATM   14  O1B PAP A 125      40.963  -3.140  22.520  1.00 24.20    -0.616 OA
HETATM   15  O2B PAP A 125      40.069  -3.014  20.180  1.00 26.86    -0.616 OA
HETATM   16  O3B PAP A 125      39.844  -1.074  21.730  1.00 28.16    -0.616 OA
ENDBRANCH  12  13
ENDBRANCH   9  12
ENDBRANCH   8   9
ENDBRANCH   7   8
ENDBRANCH   1   7
BRANCH   3  17
HETATM   17  O3' PAP A 125      38.136  -9.619  18.688  1.00 36.20    -0.261 OA
BRANCH  17  18
HETATM   18  P   PAP A 125      38.859 -11.096  19.149  1.00 39.68     0.423 P 
HETATM   19  O1  PAP A 125      38.335 -11.999  18.094  1.00 40.50    -0.617 OA
HETATM   20  O2  PAP A 125      40.308 -10.790  19.056  1.00 39.38    -0.617 OA
HETATM   21  O3  PAP A 125      38.409 -11.361  20.550  1.00 40.59    -0.617 OA
ENDBRANCH  17  18
ENDBRANCH   3  17
BRANCH   6  22
HETATM   22  N9  PAP A 125      37.151  -6.040  16.575  1.00 29.22    -0.270 N 
HETATM   23  C4  PAP A 125      37.668  -4.723  16.453  1.00 29.28     0.170 A 
HETATM   24  N3  PAP A 125      38.617  -4.068  17.211  1.00 29.66    -0.205 NA
HETATM   25  C5  PAP A 125      36.993  -4.169  15.370  1.00 29.93     0.155 A 
HETATM   26  C2  PAP A 125      38.796  -2.802  16.766  1.00 28.29     0.202 A 
HETATM   27  N1  PAP A 125      38.223  -2.134  15.753  1.00 27.66    -0.202 NA
HETATM   28  C6  PAP A 125      37.301  -2.790  14.999  1.00 28.82     0.206 A 
HETATM   29  N6  PAP A 125      36.765  -2.195  13.916  1.00 26.39    -0.125 N 
HETATM   30  N7  PAP A 125      36.073  -5.125  14.834  1.00 30.19    -0.219 NA
HETATM   31  C8  PAP A 125      36.218  -6.181  15.578  1.00 28.80     0.182 A 
ENDBRANCH   6  22
TORSDOF 8
ENDMDL
MODEL 2
REMARK VINA RESULT:    -4.806     17.738     18.978
REMARK INTER + INTRA:          -8.487
REMARK INTER:                  -7.135
REMARK INTRA:                  -1.352
REMARK UNBOUND:                -1.432
REMARK  8 active torsions:
REMARK  status: ('A' for Active; 'I' for Inactive)
REMARK    1  A    between atoms: P_1  and  O3'_9 
REMARK    2  A    between atoms: PA_2  and  O5'_5 
REMARK    3  A    between atoms: PA_2  and  O3A_23 
REMARK    4  A    between atoms: PB_3  and  O3A_23 
REMARK    5  A    between atoms: C5'_4  and  O5'_5 
REMARK    6  A    between atoms: C5'_4  and  C4'_6 
REMARK    7  A    between atoms: C3'_8  and  O3'_9 
REMARK    8  A    between atoms: C1'_12  and  N9_31 
ROOT
HETATM    1  C4' PAP A 125      22.547  -7.220  10.275  1.00 30.66     0.178 C 
HETATM    2  O4' PAP A 125      22.299  -6.960  11.661  1.00 30.64    -0.331 OA
HETATM    3  C3' PAP A 125      22.236  -8.723  10.040  1.00 32.01     0.192 C 
HETATM    4  C2' PAP A 125      21.332  -9.022  11.230  1.00 31.03     0.231 C 
HETATM    5  O2' PAP A 125      21.297 -10.439  11.509  1.00 29.14    -0.216 OA
HETATM    6  C1' PAP A 125      22.153  -8.233  12.269  1.00 29.59     0.241 C 
ENDROOT
BRANCH   1   7
HETATM    7  C5' PAP A 125      21.633  -6.301   9.518  1.00 29.07     0.187 C 
BRANCH   7   8
HETATM    8  O5' PAP A 125      22.413  -5.163   9.205  1.00 30.13    -0.268 OA
BRANCH   8   9
HETATM    9  PA  PAP A 125      23.389  -5.153   7.902  1.00 31.22     0.419 P 
HETATM   10  O1A PAP A 125      24.785  -5.023   8.412  1.00 32.37    -0.624 OA
HETATM   11  O2A PAP A 125      23.054  -6.321   7.042  1.00 32.57    -0.624 OA
BRANCH   9  12
HETATM   12  O3A PAP A 125      23.087  -3.636   7.149  1.00 29.92    -0.173 OA
BRANCH  12  13
HETATM   13  PB  PAP A 125      22.384  -2.200   7.540  1.00 26.94     0.431 P 
HETATM   14  O1B PAP A 125      22.711  -1.291   6.422  1.00 24.20    -0.616 OA
HETATM   15  O2B PAP A 125      20.928  -2.546   7.661  1.00 26.86    -0.616 OA
HETATM   16  O3B PAP A 125      23.004  -1.809   8.828  1.00 28.16    -0.616 OA
ENDBRANCH  12  13
ENDBRANCH   9  12
ENDBRANCH   8   9
ENDBRANCH   7   8
ENDBRANCH   1   7
BRANCH   3  17
HETATM   17  O3' PAP A 125      23.472  -9.490  10.107  1.00 36.20    -0.261 OA
BRANCH  17  18
HETATM   18  P   PAP A 125      24.449  -9.697   8.723  1.00 39.68     0.423 P 
HETATM   19  O1  PAP A 125      25.116 -10.982   9.047  1.00 40.50    -0.617 OA
HETATM   20  O2  PAP A 125      23.449  -9.762   7.628  1.00 39.38    -0.617 OA
HETATM   21  O3  PAP A 125      25.321  -8.485   8.642  1.00 40.59    -0.617 OA
ENDBRANCH  17  18
ENDBRANCH   3  17
BRANCH   6  22
HETATM   22  N9  PAP A 125      21.493  -7.947  13.564  1.00 29.22    -0.270 N 
HETATM   23  C4  PAP A 125      21.273  -8.768  14.701  1.00 29.28     0.170 A 
HETATM   24  N3  PAP A 125      21.600 -10.093  14.915  1.00 29.66    -0.205 NA
HETATM   25  C5  PAP A 125      20.616  -7.953  15.615  1.00 29.93     0.155 A 
HETATM   26  C2  PAP A 125      21.179 -10.498  16.137  1.00 28.29     0.202 A 
HETATM   27  N1  PAP A 125      20.536  -9.837  17.112  1.00 27.66    -0.202 NA
HETATM   28  C6  PAP A 125      20.234  -8.529  16.902  1.00 28.82     0.206 A 
HETATM   29  N6  PAP A 125      19.671  -7.798  17.883  1.00 26.39    -0.125 N 
HETATM   30  N7  PAP A 125      20.429  -6.650  15.053  1.00 30.19    -0.219 NA
HETATM   31  C8  PAP A 125      20.960  -6.719  13.868  1.00 28.80     0.182 A 
ENDBRANCH   6  22
TORSDOF 8
ENDMDL
MODEL 3
REMARK VINA RESULT:    -4.767      6.210      9.885
REMARK INTER + INTRA:          -8.429
REMARK INTER:                  -7.206
REMARK INTRA:                  -1.223
REMARK UNBOUND:                -1.432
REMARK  8 active torsions:
REMARK  status: ('A' for Active; 'I' for Inactive)
REMARK    1  A    between atoms: P_1  and  O3'_9 
REMARK    2  A    between atoms: PA_2  and  O5'_5 
REMARK    3  A    between atoms: PA_2  and  O3A_23 
REMARK    4  A    between atoms: PB_3  and  O3A_23 
REMARK    5  A    between atoms: C5'_4  and  O5'_5 
REMARK    6  A    between atoms: C5'_4  and  C4'_6 
REMARK    7  A    between atoms: C3'_8  and  O3'_9 
REMARK    8  A    between atoms: C1'_12  and  N9_31 
ROOT
HETATM    1  C4' PAP A 125      39.727  -3.153  22.973  1.00 30.66     0.178 C 
HETATM    2  O4' PAP A 125      39.809  -4.163  23.985  1.00 30.64    -0.331 OA
HETATM    3  C3' PAP A 125      40.620  -1.974  23.447  1.00 32.01     0.192 C 
HETATM    4  C2' PAP A 125      41.531  -2.681  24.443  1.00 31.03     0.231 C 
HETATM    5  O2' PAP A 125      42.119  -1.736  25.364  1.00 29.14    -0.216 OA
HETATM    6  C1' PAP A 125      40.431  -3.541  25.098  1.00 29.59     0.241 C 
ENDROOT
BRANCH   1   7
HETATM    7  C5' PAP A 125      40.222  -3.800  21.712  1.00 29.07     0.187 C 
BRANCH   7   8
HETATM    8  O5' PAP A 125      39.084  -3.935  20.883  1.00 30.13    -0.268 OA
BRANCH   8   9
HETATM    9  PA  PAP A 125      38.084  -5.210  21.038  1.00 31.22     0.419 P 
HETATM   10  O1A PAP A 125      38.923  -6.361  21.488  1.00 32.37    -0.624 OA
HETATM   11  O2A PAP A 125      36.922  -4.810  21.876  1.00 32.57    -0.624 OA
BRANCH   9  12
HETATM   12  O3A PAP A 125      37.659  -5.623  19.424  1.00 29.92    -0.173 OA
BRANCH  12  13
HETATM   13  PB  PAP A 125      38.356  -5.592  17.933  1.00 26.94     0.431 P 
HETATM   14  O1B PAP A 125      39.691  -6.197  18.117  1.00 24.20    -0.616 OA
HETATM   15  O2B PAP A 125      37.412  -6.402  17.090  1.00 26.86    -0.616 OA
HETATM   16  O3B PAP A 125      38.396  -4.159  17.559  1.00 28.16    -0.616 OA
ENDBRANCH  12  13
ENDBRANCH   9  12
ENDBRANCH   8   9
ENDBRANCH   7   8
ENDBRANCH   1   7
BRANCH   3  17
HETATM   17  O3' PAP A 125      39.790  -0.973  24.103  1.00 36.20    -0.261 OA
BRANCH  17  18
HETATM   18  P   PAP A 125      38.772   0.053  23.194  1.00 39.68     0.423 P 
HETATM   19  O1  PAP A 125      38.825   1.289  24.013  1.00 40.50    -0.617 OA
HETATM   20  O2  PAP A 125      39.474   0.130  21.888  1.00 39.38    -0.617 OA
HETATM   21  O3  PAP A 125      37.452  -0.643  23.104  1.00 40.59    -0.617 OA
ENDBRANCH  17  18
ENDBRANCH   3  17
BRANCH   6  22
HETATM   22  N9  PAP A 125      40.883  -4.669  25.943  1.00 29.22    -0.270 N 
HETATM   23  C4  PAP A 125      41.435  -4.693  27.251  1.00 29.28     0.170 A 
HETATM   24  N3  PAP A 125      41.730  -3.651  28.109  1.00 29.66    -0.205 NA
HETATM   25  C5  PAP A 125      41.652  -6.038  27.529  1.00 29.93     0.155 A 
HETATM   26  C2  PAP A 125      42.275  -4.117  29.257  1.00 28.29     0.202 A 
HETATM   27  N1  PAP A 125      42.548  -5.367  29.661  1.00 27.66    -0.202 NA
HETATM   28  C6  PAP A 125      42.238  -6.389  28.820  1.00 28.82     0.206 A 
HETATM   29  N6  PAP A 125      42.407  -7.666  29.214  1.00 26.39    -0.125 N 
HETATM   30  N7  PAP A 125      41.244  -6.833  26.411  1.00 30.19    -0.219 NA
HETATM   31  C8  PAP A 125      40.810  -5.977  25.534  1.00 28.80     0.182 A 
ENDBRANCH   6  22
TORSDOF 8
ENDMDL
MODEL 4
REMARK VINA RESULT:    -4.748     17.425     19.177
REMARK INTER + INTRA:          -8.401
REMARK INTER:                  -6.881
REMARK INTRA:                  -1.520
REMARK UNBOUND:                -1.432
REMARK  8 active torsions:
REMARK  status: ('A' for Active; 'I' for Inactive)
REMARK    1  A    between atoms: P_1  and  O3'_9 
REMARK    2  A    between atoms: PA_2  and  O5'_5 
REMARK    3  A    between atoms: PA_2  and  O3A_23 
REMARK    4  A    between atoms: PB_3  and  O3A_23 
REMARK    5  A    between atoms: C5'_4  and  O5'_5 
REMARK    6  A    between atoms: C5'_4  and  C4'_6 
REMARK    7  A    between atoms: C3'_8  and  O3'_9 
REMARK    8  A    between atoms: C1'_12  and  N9_31 
ROOT
HETATM    1  C4' PAP A 125      19.232 -10.757  16.174  1.00 30.66     0.178 C 
HETATM    2  O4' PAP A 125      19.757 -10.141  14.994  1.00 30.64    -0.331 OA
HETATM    3  C3' PAP A 125      20.229 -10.443  17.323  1.00 32.01     0.192 C 
HETATM    4  C2' PAP A 125      20.949  -9.225  16.758  1.00 31.03     0.231 C 
HETATM    5  O2' PAP A 125      22.227  -9.036  17.404  1.00 29.14    -0.216 OA
HETATM    6  C1' PAP A 125      21.084  -9.760  15.319  1.00 29.59     0.241 C 
ENDROOT
BRANCH   1   7
HETATM    7  C5' PAP A 125      17.877 -10.145  16.384  1.00 29.07     0.187 C 
BRANCH   7   8
HETATM    8  O5' PAP A 125      17.812  -9.050  15.491  1.00 30.13    -0.268 OA
BRANCH   8   9
HETATM    9  PA  PAP A 125      17.252  -7.603  15.984  1.00 31.22     0.419 P 
HETATM   10  O1A PAP A 125      18.443  -6.725  16.179  1.00 32.37    -0.624 OA
HETATM   11  O2A PAP A 125      16.187  -7.156  15.045  1.00 32.57    -0.624 OA
BRANCH   9  12
HETATM   12  O3A PAP A 125      16.685  -7.882  17.583  1.00 29.92    -0.173 OA
BRANCH  12  13
HETATM   13  PB  PAP A 125      17.065  -7.405  19.112  1.00 26.94     0.431 P 
HETATM   14  O1B PAP A 125      16.711  -5.972  19.170  1.00 24.20    -0.616 OA
HETATM   15  O2B PAP A 125      16.217  -8.295  19.975  1.00 26.86    -0.616 OA
HETATM   16  O3B PAP A 125      18.517  -7.667  19.245  1.00 28.16    -0.616 OA
ENDBRANCH  12  13
ENDBRANCH   9  12
ENDBRANCH   8   9
ENDBRANCH   7   8
ENDBRANCH   1   7
BRANCH   3  17
HETATM   17  O3' PAP A 125      21.139 -11.567  17.493  1.00 36.20    -0.261 OA
BRANCH  17  18
HETATM   18  P   PAP A 125      21.048 -12.566  18.874  1.00 39.68     0.423 P 
HETATM   19  O1  PAP A 125      22.381 -12.323  19.478  1.00 40.50    -0.617 OA
HETATM   20  O2  PAP A 125      19.902 -11.986  19.618  1.00 39.38    -0.617 OA
HETATM   21  O3  PAP A 125      20.774 -13.948  18.372  1.00 40.59    -0.617 OA
ENDBRANCH  17  18
ENDBRANCH   3  17
BRANCH   6  22
HETATM   22  N9  PAP A 125      21.450  -8.778  14.273  1.00 29.22    -0.270 N 
HETATM   23  C4  PAP A 125      21.754  -8.949  12.897  1.00 29.28     0.170 A 
HETATM   24  N3  PAP A 125      21.816 -10.101  12.139  1.00 29.66    -0.205 NA
HETATM   25  C5  PAP A 125      22.008  -7.668  12.420  1.00 29.93     0.155 A 
HETATM   26  C2  PAP A 125      22.173  -9.817  10.863  1.00 28.29     0.202 A 
HETATM   27  N1  PAP A 125      22.452  -8.648  10.266  1.00 27.66    -0.202 NA
HETATM   28  C6  PAP A 125      22.372  -7.516  11.013  1.00 28.82     0.206 A 
HETATM   29  N6  PAP A 125      22.553  -6.311  10.439  1.00 26.39    -0.125 N 
HETATM   30  N7  PAP A 125      21.867  -6.720  13.483  1.00 30.19    -0.219 NA
HETATM   31  C8  PAP A 125      21.543  -7.431  14.522  1.00 28.80     0.182 A 
ENDBRANCH   6  22
TORSDOF 8
ENDMDL
MODEL 5
REMARK VINA RESULT:    -4.719      7.562     10.927
REMARK INTER + INTRA:          -8.359
REMARK INTER:                  -7.082
REMARK INTRA:                  -1.276
REMARK UNBOUND:                -1.432
REMARK  8 active torsions:
REMARK  status: ('A' for Active; 'I' for Inactive)
REMARK    1  A    between atoms: P_1  and  O3'_9 
REMARK    2  A    between atoms: PA_2  and  O5'_5 
REMARK    3  A    between atoms: PA_2  and  O3A_23 
REMARK    4  A    between atoms: PB_3  and  O3A_23 
REMARK    5  A    between atoms: C5'_4  and  O5'_5 
REMARK    6  A    between atoms: C5'_4  and  C4'_6 
REMARK    7  A    between atoms: C3'_8  and  O3'_9 
REMARK    8  A    between atoms: C1'_12  and  N9_31 
ROOT
HETATM    1  C4' PAP A 125      40.685  -3.468  25.527  1.00 30.66     0.178 C 
HETATM    2  O4' PAP A 125      40.448  -4.175  26.749  1.00 30.64    -0.331 OA
HETATM    3  C3' PAP A 125      42.195  -3.104  25.507  1.00 32.01     0.192 C 
HETATM    4  C2' PAP A 125      42.752  -4.122  26.496  1.00 31.03     0.231 C 
HETATM    5  O2' PAP A 125      44.030  -3.691  27.014  1.00 29.14    -0.216 OA
HETATM    6  C1' PAP A 125      41.617  -3.991  27.531  1.00 29.59     0.241 C 
ENDROOT
BRANCH   1   7
HETATM    7  C5' PAP A 125      40.289  -4.410  24.427  1.00 29.07     0.187 C 
BRANCH   7   8
HETATM    8  O5' PAP A 125      39.123  -3.854  23.852  1.00 30.13    -0.268 OA
BRANCH   8   9
HETATM    9  PA  PAP A 125      38.516  -4.443  22.461  1.00 31.22     0.419 P 
HETATM   10  O1A PAP A 125      38.866  -5.893  22.419  1.00 32.37    -0.624 OA
HETATM   11  O2A PAP A 125      37.082  -4.056  22.361  1.00 32.57    -0.624 OA
BRANCH   9  12
HETATM   12  O3A PAP A 125      39.502  -3.750  21.234  1.00 29.92    -0.173 OA
BRANCH  12  13
HETATM   13  PB  PAP A 125      40.315  -2.343  20.973  1.00 26.94     0.431 P 
HETATM   14  O1B PAP A 125      39.508  -1.299  21.637  1.00 24.20    -0.616 OA
HETATM   15  O2B PAP A 125      41.656  -2.594  21.602  1.00 26.86    -0.616 OA
HETATM   16  O3B PAP A 125      40.375  -2.204  19.499  1.00 28.16    -0.616 OA
ENDBRANCH  12  13
ENDBRANCH   9  12
ENDBRANCH   8   9
ENDBRANCH   7   8
ENDBRANCH   1   7
BRANCH   3  17
HETATM   17  O3' PAP A 125      42.371  -1.742  25.992  1.00 36.20    -0.261 OA
BRANCH  17  18
HETATM   18  P   PAP A 125      42.405  -0.425  24.906  1.00 39.68     0.423 P 
HETATM   19  O1  PAP A 125      43.429  -0.894  23.939  1.00 40.50    -0.617 OA
HETATM   20  O2  PAP A 125      41.014  -0.395  24.389  1.00 39.38    -0.617 OA
HETATM   21  O3  PAP A 125      42.748   0.780  25.722  1.00 40.59    -0.617 OA
ENDBRANCH  17  18
ENDBRANCH   3  17
BRANCH   6  22
HETATM   22  N9  PAP A 125      41.535  -5.045  28.568  1.00 29.22    -0.270 N 
HETATM   23  C4  PAP A 125      41.426  -6.457  28.456  1.00 29.28     0.170 A 
HETATM   24  N3  PAP A 125      41.344  -7.254  27.331  1.00 29.66    -0.205 NA
HETATM   25  C5  PAP A 125      41.402  -6.923  29.765  1.00 29.93     0.155 A 
HETATM   26  C2  PAP A 125      41.223  -8.558  27.677  1.00 28.29     0.202 A 
HETATM   27  N1  PAP A 125      41.179  -9.151  28.880  1.00 27.66    -0.202 NA
HETATM   28  C6  PAP A 125      41.278  -8.362  29.983  1.00 28.82     0.206 A 
HETATM   29  N6  PAP A 125      41.332  -8.916  31.209  1.00 26.39    -0.125 N 
HETATM   30  N7  PAP A 125      41.491  -5.819  30.673  1.00 30.19    -0.219 NA
HETATM   31  C8  PAP A 125      41.565  -4.768  29.911  1.00 28.80     0.182 A 
ENDBRANCH   6  22
TORSDOF 8
ENDMDL
MODEL 6
REMARK VINA RESULT:    -4.642     17.878     19.167
REMARK INTER + INTRA:          -8.245
REMARK INTER:                  -7.158
REMARK INTRA:                  -1.087
REMARK UNBOUND:                -1.432
REMARK  8 active torsions:
REMARK  status: ('A' for Active; 'I' for Inactive)
REMARK    1  A    between atoms: P_1  and  O3'_9 
REMARK    2  A    between atoms: PA_2  and  O5'_5 
REMARK    3  A    between atoms: PA_2  and  O3A_23 
REMARK    4  A    between atoms: PB_3  and  O3A_23 
REMARK    5  A    between atoms: C5'_4  and  O5'_5 
REMARK    6  A    between atoms: C5'_4  and  C4'_6 
REMARK    7  A    between atoms: C3'_8  and  O3'_9 
REMARK    8  A    between atoms: C1'_12  and  N9_31 
ROOT
HETATM    1  C4' PAP A 125      22.405  -8.101  11.009  1.00 30.66     0.178 C 
HETATM    2  O4' PAP A 125      22.097  -7.634  12.327  1.00 30.64    -0.331 OA
HETATM    3  C3' PAP A 125      21.777  -9.515  10.878  1.00 32.01     0.192 C 
HETATM    4  C2' PAP A 125      20.722  -9.467  11.977  1.00 31.03     0.231 C 
HETATM    5  O2' PAP A 125      20.335 -10.800  12.379  1.00 29.14    -0.216 OA
HETATM    6  C1' PAP A 125      21.604  -8.764  13.028  1.00 29.59     0.241 C 
ENDROOT
BRANCH   1   7
HETATM    7  C5' PAP A 125      21.803  -7.097  10.070  1.00 29.07     0.187 C 
BRANCH   7   8
HETATM    8  O5' PAP A 125      22.693  -5.998  10.066  1.00 30.13    -0.268 OA
BRANCH   8   9
HETATM    9  PA  PAP A 125      23.132  -5.284   8.670  1.00 31.22     0.419 P 
HETATM   10  O1A PAP A 125      24.548  -4.843   8.839  1.00 32.37    -0.624 OA
HETATM   11  O2A PAP A 125      22.803  -6.196   7.541  1.00 32.57    -0.624 OA
BRANCH   9  12
HETATM   12  O3A PAP A 125      22.246  -3.810   8.643  1.00 29.92    -0.173 OA
BRANCH  12  13
HETATM   13  PB  PAP A 125      22.160  -2.457   7.711  1.00 26.94     0.431 P 
HETATM   14  O1B PAP A 125      22.625  -2.876   6.373  1.00 24.20    -0.616 OA
HETATM   15  O2B PAP A 125      20.708  -2.078   7.779  1.00 26.86    -0.616 OA
HETATM   16  O3B PAP A 125      23.054  -1.478   8.374  1.00 28.16    -0.616 OA
ENDBRANCH  12  13
ENDBRANCH   9  12
ENDBRANCH   8   9
ENDBRANCH   7   8
ENDBRANCH   1   7
BRANCH   3  17
HETATM   17  O3' PAP A 125      22.791 -10.522  11.159  1.00 36.20    -0.261 OA
BRANCH  17  18
HETATM   18  P   PAP A 125      23.299 -11.613   9.948  1.00 39.68     0.423 P 
HETATM   19  O1  PAP A 125      22.071 -12.430   9.781  1.00 40.50    -0.617 OA
HETATM   20  O2  PAP A 125      23.616 -10.711   8.812  1.00 39.38    -0.617 OA
HETATM   21  O3  PAP A 125      24.506 -12.309  10.491  1.00 40.59    -0.617 OA
ENDBRANCH  17  18
ENDBRANCH   3  17
BRANCH   6  22
HETATM   22  N9  PAP A 125      20.911  -8.192  14.205  1.00 29.22    -0.270 N 
HETATM   23  C4  PAP A 125      20.580  -8.764  15.462  1.00 29.28     0.170 A 
HETATM   24  N3  PAP A 125      20.795 -10.041  15.940  1.00 29.66    -0.205 NA
HETATM   25  C5  PAP A 125      19.946  -7.747  16.167  1.00 29.93     0.155 A 
HETATM   26  C2  PAP A 125      20.292 -10.175  17.190  1.00 28.29     0.202 A 
HETATM   27  N1  PAP A 125      19.658  -9.299  17.984  1.00 27.66    -0.202 NA
HETATM   28  C6  PAP A 125      19.465  -8.038  17.515  1.00 28.82     0.206 A 
HETATM   29  N6  PAP A 125      18.917  -7.097  18.307  1.00 26.39    -0.125 N 
HETATM   30  N7  PAP A 125      19.884  -6.566  15.359  1.00 30.19    -0.219 NA
HETATM   31  C8  PAP A 125      20.460  -6.897  14.242  1.00 28.80     0.182 A 
ENDBRANCH   6  22
TORSDOF 8
ENDMDL
MODEL 7
REMARK VINA RESULT:    -4.626     15.561     17.213
REMARK INTER + INTRA:          -8.221
REMARK INTER:                  -6.602
REMARK INTRA:                  -1.620
REMARK UNBOUND:                -1.432
REMARK  8 active torsions:
REMARK  status: ('A' for Active; 'I' for Inactive)
REMARK    1  A    between atoms: P_1  and  O3'_9 
REMARK    2  A    between atoms: PA_2  and  O5'_5 
REMARK    3  A    between atoms: PA_2  and  O3A_23 
REMARK    4  A    between atoms: PB_3  and  O3A_23 
REMARK    5  A    between atoms: C5'_4  and  O5'_5 
REMARK    6  A    between atoms: C5'_4  and  C4'_6 
REMARK    7  A    between atoms: C3'_8  and  O3'_9 
REMARK    8  A    between atoms: C1'_12  and  N9_31 
ROOT
HETATM    1  C4' PAP A 125      29.727 -11.225  30.444  1.00 30.66     0.178 C 
HETATM    2  O4' PAP A 125      29.736 -12.133  29.337  1.00 30.64    -0.331 OA
HETATM    3  C3' PAP A 125      28.278 -11.217  31.003  1.00 32.01     0.192 C 
HETATM    4  C2' PAP A 125      27.751 -12.540  30.462  1.00 31.03     0.231 C 
HETATM    5  O2' PAP A 125      26.306 -12.546  30.431  1.00 29.14    -0.216 OA
HETATM    6  C1' PAP A 125      28.373 -12.410  29.057  1.00 29.59     0.241 C 
ENDROOT
BRANCH   1   7
HETATM    7  C5' PAP A 125      30.734 -11.761  31.419  1.00 29.07     0.187 C 
BRANCH   7   8
HETATM    8  O5' PAP A 125      31.435 -12.774  30.724  1.00 30.13    -0.268 OA
BRANCH   8   9
HETATM    9  PA  PAP A 125      32.347 -13.858  31.525  1.00 31.22     0.419 P 
HETATM   10  O1A PAP A 125      33.533 -13.119  32.049  1.00 32.37    -0.624 OA
HETATM   11  O2A PAP A 125      31.484 -14.590  32.492  1.00 32.57    -0.624 OA
BRANCH   9  12
HETATM   12  O3A PAP A 125      33.004 -14.862  30.294  1.00 29.92    -0.173 OA
BRANCH  12  13
HETATM   13  PB  PAP A 125      33.906 -16.235  30.192  1.00 26.94     0.431 P 
HETATM   14  O1B PAP A 125      33.486 -17.062  31.342  1.00 24.20    -0.616 OA
HETATM   15  O2B PAP A 125      33.537 -16.796  28.849  1.00 26.86    -0.616 OA
HETATM   16  O3B PAP A 125      35.313 -15.775  30.270  1.00 28.16    -0.616 OA
ENDBRANCH  12  13
ENDBRANCH   9  12
ENDBRANCH   8   9
ENDBRANCH   7   8
ENDBRANCH   1   7
BRANCH   3  17
HETATM   17  O3' PAP A 125      27.550 -10.087  30.443  1.00 36.20    -0.261 OA
BRANCH  17  18
HETATM   18  P   PAP A 125      27.030  -8.801  31.438  1.00 39.68     0.423 P 
HETATM   19  O1  PAP A 125      26.471  -7.875  30.422  1.00 40.50    -0.617 OA
HETATM   20  O2  PAP A 125      26.028  -9.455  32.316  1.00 39.38    -0.617 OA
HETATM   21  O3  PAP A 125      28.239  -8.335  32.184  1.00 40.59    -0.617 OA
ENDBRANCH  17  18
ENDBRANCH   3  17
BRANCH   6  22
HETATM   22  N9  PAP A 125      28.411 -13.636  28.228  1.00 29.22    -0.270 N 
HETATM   23  C4  PAP A 125      28.950 -14.924  28.491  1.00 29.28     0.170 A 
HETATM   24  N3  PAP A 125      29.618 -15.396  29.602  1.00 29.66    -0.205 NA
HETATM   25  C5  PAP A 125      28.678 -15.669  27.349  1.00 29.93     0.155 A 
HETATM   26  C2  PAP A 125      29.988 -16.687  29.426  1.00 28.29     0.202 A 
HETATM   27  N1  PAP A 125      29.805 -17.523  28.393  1.00 27.66    -0.202 NA
HETATM   28  C6  PAP A 125      29.130 -17.057  27.309  1.00 28.82     0.206 A 
HETATM   29  N6  PAP A 125      28.840 -17.884  26.285  1.00 26.39    -0.125 N 
HETATM   30  N7  PAP A 125      27.985 -14.857  26.395  1.00 30.19    -0.219 NA
HETATM   31  C8  PAP A 125      27.866 -13.697  26.970  1.00 28.80     0.182 A 
ENDBRANCH   6  22
TORSDOF 8
ENDMDL
MODEL 8
REMARK VINA RESULT:    -4.613     17.389     18.688
REMARK INTER + INTRA:          -8.203
REMARK INTER:                  -6.873
REMARK INTRA:                  -1.331
REMARK UNBOUND:                -1.432
REMARK  8 active torsions:
REMARK  status: ('A' for Active; 'I' for Inactive)
REMARK    1  A    between atoms: P_1  and  O3'_9 
REMARK    2  A    between atoms: PA_2  and  O5'_5 
REMARK    3  A    between atoms: PA_2  and  O3A_23 
REMARK    4  A    between atoms: PB_3  and  O3A_23 
REMARK    5  A    between atoms: C5'_4  and  O5'_5 
REMARK    6  A    between atoms: C5'_4  and  C4'_6 
REMARK    7  A    between atoms: C3'_8  and  O3'_9 
REMARK    8  A    between atoms: C1'_12  and  N9_31 
ROOT
HETATM    1  C4' PAP A 125      22.655  -7.542  10.736  1.00 30.66     0.178 C 
HETATM    2  O4' PAP A 125      22.345  -7.277  12.108  1.00 30.64    -0.331 OA
HETATM    3  C3' PAP A 125      21.911  -8.851  10.356  1.00 32.01     0.192 C 
HETATM    4  C2' PAP A 125      20.829  -8.892  11.428  1.00 31.03     0.231 C 
HETATM    5  O2' PAP A 125      20.314 -10.232  11.590  1.00 29.14    -0.216 OA
HETATM    6  C1' PAP A 125      21.734  -8.459  12.599  1.00 29.59     0.241 C 
ENDROOT
BRANCH   1   7
HETATM    7  C5' PAP A 125      22.173  -6.344   9.971  1.00 29.07     0.187 C 
BRANCH   7   8
HETATM    8  O5' PAP A 125      23.327  -5.567   9.716  1.00 30.13    -0.268 OA
BRANCH   8   9
HETATM    9  PA  PAP A 125      23.982  -5.508   8.227  1.00 31.22     0.419 P 
HETATM   10  O1A PAP A 125      23.004  -6.152   7.302  1.00 32.37    -0.624 OA
HETATM   11  O2A PAP A 125      24.409  -4.110   7.945  1.00 32.57    -0.624 OA
BRANCH   9  12
HETATM   12  O3A PAP A 125      25.286  -6.627   8.285  1.00 29.92    -0.173 OA
BRANCH  12  13
HETATM   13  PB  PAP A 125      26.473  -7.169   7.282  1.00 26.94     0.431 P 
HETATM   14  O1B PAP A 125      25.806  -7.410   5.985  1.00 24.20    -0.616 OA
HETATM   15  O2B PAP A 125      27.466  -6.042   7.276  1.00 26.86    -0.616 OA
HETATM   16  O3B PAP A 125      26.986  -8.401   7.927  1.00 28.16    -0.616 OA
ENDBRANCH  12  13
ENDBRANCH   9  12
ENDBRANCH   8   9
ENDBRANCH   7   8
ENDBRANCH   1   7
BRANCH   3  17
HETATM   17  O3' PAP A 125      22.823  -9.979  10.478  1.00 36.20    -0.261 OA
BRANCH  17  18
HETATM   18  P   PAP A 125      23.521 -10.695   9.094  1.00 39.68     0.423 P 
HETATM   19  O1  PAP A 125      24.793 -11.207   9.662  1.00 40.50    -0.617 OA
HETATM   20  O2  PAP A 125      22.527 -11.736   8.732  1.00 39.38    -0.617 OA
HETATM   21  O3  PAP A 125      23.626  -9.609   8.071  1.00 40.59    -0.617 OA
ENDBRANCH  17  18
ENDBRANCH   3  17
BRANCH   6  22
HETATM   22  N9  PAP A 125      21.055  -8.031  13.843  1.00 29.22    -0.270 N 
HETATM   23  C4  PAP A 125      20.950  -8.660  15.112  1.00 29.28     0.170 A 
HETATM   24  N3  PAP A 125      21.441  -9.877  15.543  1.00 29.66    -0.205 NA
HETATM   25  C5  PAP A 125      20.205  -7.782  15.891  1.00 29.93     0.155 A 
HETATM   26  C2  PAP A 125      21.086 -10.108  16.830  1.00 28.29     0.202 A 
HETATM   27  N1  PAP A 125      20.375  -9.368  17.694  1.00 27.66    -0.202 NA
HETATM   28  C6  PAP A 125      19.909  -8.164  17.270  1.00 28.82     0.206 A 
HETATM   29  N6  PAP A 125      19.269  -7.345  18.126  1.00 26.39    -0.125 N 
HETATM   30  N7  PAP A 125      19.852  -6.631  15.117  1.00 30.19    -0.219 NA
HETATM   31  C8  PAP A 125      20.376  -6.843  13.946  1.00 28.80     0.182 A 
ENDBRANCH   6  22
TORSDOF 8
ENDMDL
MODEL 9
REMARK VINA RESULT:    -4.483     16.941     19.532
REMARK INTER + INTRA:          -8.013
REMARK INTER:                  -6.711
REMARK INTRA:                  -1.302
REMARK UNBOUND:                -1.432
REMARK  8 active torsions:
REMARK  status: ('A' for Active; 'I' for Inactive)
REMARK    1  A    between atoms: P_1  and  O3'_9 
REMARK    2  A    between atoms: PA_2  and  O5'_5 
REMARK    3  A    between atoms: PA_2  and  O3A_23 
REMARK    4  A    between atoms: PB_3  and  O3A_23 
REMARK    5  A    between atoms: C5'_4  and  O5'_5 
REMARK    6  A    between atoms: C5'_4  and  C4'_6 
REMARK    7  A    between atoms: C3'_8  and  O3'_9 
REMARK    8  A    between atoms: C1'_12  and  N9_31 
ROOT
HETATM    1  C4' PAP A 125      25.011 -10.367  31.891  1.00 30.66     0.178 C 
HETATM    2  O4' PAP A 125      26.263 -10.968  32.237  1.00 30.64    -0.331 OA
HETATM    3  C3' PAP A 125      25.299  -8.867  31.609  1.00 32.01     0.192 C 
HETATM    4  C2' PAP A 125      26.794  -8.908  31.317  1.00 31.03     0.231 C 
HETATM    5  O2' PAP A 125      27.391  -7.605  31.497  1.00 29.14    -0.216 OA
HETATM    6  C1' PAP A 125      27.161  -9.890  32.448  1.00 29.59     0.241 C 
ENDROOT
BRANCH   1   7
HETATM    7  C5' PAP A 125      24.522 -11.113  30.683  1.00 29.07     0.187 C 
BRANCH   7   8
HETATM    8  O5' PAP A 125      23.484 -10.319  30.141  1.00 30.13    -0.268 OA
BRANCH   8   9
HETATM    9  PA  PAP A 125      22.011 -10.952  29.857  1.00 31.22     0.419 P 
HETATM   10  O1A PAP A 125      22.143 -11.822  28.652  1.00 32.37    -0.624 OA
HETATM   11  O2A PAP A 125      21.498 -11.558  31.116  1.00 32.57    -0.624 OA
BRANCH   9  12
HETATM   12  O3A PAP A 125      21.071  -9.623  29.301  1.00 29.92    -0.173 OA
BRANCH  12  13
HETATM   13  PB  PAP A 125      20.621  -8.137  29.845  1.00 26.94     0.431 P 
HETATM   14  O1B PAP A 125      21.822  -7.289  29.698  1.00 24.20    -0.616 OA
HETATM   15  O2B PAP A 125      19.479  -7.767  28.942  1.00 26.86    -0.616 OA
HETATM   16  O3B PAP A 125      20.211  -8.352  31.252  1.00 28.16    -0.616 OA
ENDBRANCH  12  13
ENDBRANCH   9  12
ENDBRANCH   8   9
ENDBRANCH   7   8
ENDBRANCH   1   7
BRANCH   3  17
HETATM   17  O3' PAP A 125      25.013  -8.086  32.804  1.00 36.20    -0.261 OA
BRANCH  17  18
HETATM   18  P   PAP A 125      24.217  -6.579  32.695  1.00 39.68     0.423 P 
HETATM   19  O1  PAP A 125      22.812  -6.993  32.933  1.00 40.50    -0.617 OA
HETATM   20  O2  PAP A 125      24.843  -5.803  33.795  1.00 39.38    -0.617 OA
HETATM   21  O3  PAP A 125      24.541  -6.033  31.342  1.00 40.59    -0.617 OA
ENDBRANCH  17  18
ENDBRANCH   3  17
BRANCH   6  22
HETATM   22  N9  PAP A 125      28.503 -10.512  32.382  1.00 29.22    -0.270 N 
HETATM   23  C4  PAP A 125      29.137 -11.255  31.351  1.00 29.28     0.170 A 
HETATM   24  N3  PAP A 125      28.666 -11.630  30.109  1.00 29.66    -0.205 NA
HETATM   25  C5  PAP A 125      30.395 -11.569  31.854  1.00 29.93     0.155 A 
HETATM   26  C2  PAP A 125      29.593 -12.362  29.447  1.00 28.29     0.202 A 
HETATM   27  N1  PAP A 125      30.830 -12.746  29.799  1.00 27.66    -0.202 NA
HETATM   28  C6  PAP A 125      31.295 -12.358  31.015  1.00 28.82     0.206 A 
HETATM   29  N6  PAP A 125      32.561 -12.639  31.378  1.00 26.39    -0.125 N 
HETATM   30  N7  PAP A 125      30.536 -11.032  33.173  1.00 30.19    -0.219 NA
HETATM   31  C8  PAP A 125      29.406 -10.435  33.412  1.00 28.80     0.182 A 
ENDBRANCH   6  22
TORSDOF 8
ENDMDL
