MODEL 1
REMARK VINA RESULT:    -5.102      0.000      0.000
REMARK INTER + INTRA:          -8.832
REMARK INTER:                  -7.487
REMARK INTRA:                  -1.345
REMARK UNBOUND:                -1.345
REMARK  8 active torsions:
REMARK  status: ('A' for Active; 'I' for Inactive)
REMARK    1  A    between atoms: P_1  and  O3'_9 
REMARK    2  A    between atoms: PA_2  and  O5'_5 
REMARK    3  A    between atoms: PA_2  and  O3A_23 
REMARK    4  A    between atoms: PB_3  and  O3A_23 
REMARK    5  A    between atoms: C5'_4  and  O5'_5 
REMARK    6  A    between atoms: C5'_4  and  C4'_6 
REMARK    7  A    between atoms: C3'_8  and  O3'_9 
REMARK    8  A    between atoms: C1'_12  and  N9_31 
ROOT
HETATM    1  C4' PAP A 125      38.031  -7.445  19.669  1.00 30.66     0.178 C 
HETATM    2  O4' PAP A 125      37.325  -6.620  18.736  1.00 30.64    -0.331 OA
HETATM    3  C3' PAP A 125      39.051  -8.278  18.846  1.00 32.01     0.192 C 
HETATM    4  C2' PAP A 125      39.164  -7.433  17.583  1.00 31.03     0.231 C 
HETATM    5  O2' PAP A 125      39.667  -8.220  16.480  1.00 29.14    -0.216 OA
HETATM    6  C1' PAP A 125      37.660  -7.122  17.452  1.00 29.59     0.241 C 
ENDROOT
BRANCH   1   7
HETATM    7  C5' PAP A 125      38.684  -6.499  20.636  1.00 29.07     0.187 C 
BRANCH   7   8
HETATM    8  O5' PAP A 125      37.705  -5.521  20.929  1.00 30.13    -0.268 OA
BRANCH   8   9
HETATM    9  PA  PAP A 125      37.753  -4.685  22.326  1.00 31.22     0.419 P 
HETATM   10  O1A PAP A 125      36.355  -4.249  22.613  1.00 32.37    -0.624 OA
HETATM   11  O2A PAP A 125      38.466  -5.499  23.348  1.00 32.57    -0.624 OA
BRANCH   9  12
HETATM   12  O3A PAP A 125      38.563  -3.222  21.925  1.00 29.92    -0.173 OA
BRANCH  12  13
HETATM   13  PB  PAP A 125      40.112  -2.691  21.766  1.00 26.94     0.431 P 
HETATM   14  O1B PAP A 125      40.309  -1.729  22.869  1.00 24.20    -0.616 OA
HETATM   15  O2B PAP A 125      40.925  -3.949  21.878  1.00 26.86    -0.616 OA
HETATM   16  O3B PAP A 125      40.168  -2.074  20.420  1.00 28.16    -0.616 OA
ENDBRANCH  12  13
ENDBRANCH   9  12
ENDBRANCH   8   9
ENDBRANCH   7   8
ENDBRANCH   1   7
BRANCH   3  17
HETATM   17  O3' PAP A 125      38.485  -9.589  18.560  1.00 36.20    -0.261 OA
BRANCH  17  18
HETATM   18  P   PAP A 125      39.275 -11.013  19.071  1.00 39.68     0.423 P 
HETATM   19  O1  PAP A 125      40.399 -10.439  19.851  1.00 40.50    -0.617 OA
HETATM   20  O2  PAP A 125      38.229 -11.692  19.877  1.00 39.38    -0.617 OA
HETATM   21  O3  PAP A 125      39.629 -11.764  17.828  1.00 40.59    -0.617 OA
ENDBRANCH  17  18
ENDBRANCH   3  17
BRANCH   6  22
HETATM   22  N9  PAP A 125      37.283  -6.032  16.523  1.00 29.22    -0.270 N 
HETATM   23  C4  PAP A 125      37.755  -4.698  16.409  1.00 29.28     0.170 A 
HETATM   24  N3  PAP A 125      38.700  -4.024  17.157  1.00 29.66    -0.205 NA
HETATM   25  C5  PAP A 125      37.042  -4.151  15.348  1.00 29.93     0.155 A 
HETATM   26  C2  PAP A 125      38.829  -2.747  16.727  1.00 28.29     0.202 A 
HETATM   27  N1  PAP A 125      38.215  -2.084  15.735  1.00 27.66    -0.202 NA
HETATM   28  C6  PAP A 125      37.299  -2.758  14.990  1.00 28.82     0.206 A 
HETATM   29  N6  PAP A 125      36.722  -2.166  13.927  1.00 26.39    -0.125 N 
HETATM   30  N7  PAP A 125      36.141  -5.128  14.817  1.00 30.19    -0.219 NA
HETATM   31  C8  PAP A 125      36.334  -6.189  15.543  1.00 28.80     0.182 A 
ENDBRANCH   6  22
TORSDOF 8
ENDMDL
MODEL 2
REMARK VINA RESULT:    -5.055      4.885      8.112
REMARK INTER + INTRA:          -8.764
REMARK INTER:                  -7.542
REMARK INTRA:                  -1.222
REMARK UNBOUND:                -1.345
REMARK  8 active torsions:
REMARK  status: ('A' for Active; 'I' for Inactive)
REMARK    1  A    between atoms: P_1  and  O3'_9 
REMARK    2  A    between atoms: PA_2  and  O5'_5 
REMARK    3  A    between atoms: PA_2  and  O3A_23 
REMARK    4  A    between atoms: PB_3  and  O3A_23 
REMARK    5  A    between atoms: C5'_4  and  O5'_5 
REMARK    6  A    between atoms: C5'_4  and  C4'_6 
REMARK    7  A    between atoms: C3'_8  and  O3'_9 
REMARK    8  A    between atoms: C1'_12  and  N9_31 
ROOT
HETATM    1  C4' PAP A 125      40.646  -2.065  23.728  1.00 30.66     0.178 C 
HETATM    2  O4' PAP A 125      40.278  -3.183  22.912  1.00 30.64    -0.331 OA
HETATM    3  C3' PAP A 125      39.398  -1.146  23.816  1.00 32.01     0.192 C 
HETATM    4  C2' PAP A 125      38.288  -2.129  23.462  1.00 31.03     0.231 C 
HETATM    5  O2' PAP A 125      37.107  -1.432  23.009  1.00 29.14    -0.216 OA
HETATM    6  C1' PAP A 125      39.042  -2.829  22.314  1.00 29.59     0.241 C 
ENDROOT
BRANCH   1   7
HETATM    7  C5' PAP A 125      41.051  -2.644  25.053  1.00 29.07     0.187 C 
BRANCH   7   8
HETATM    8  O5' PAP A 125      40.861  -4.040  24.932  1.00 30.13    -0.268 OA
BRANCH   8   9
HETATM    9  PA  PAP A 125      41.596  -5.074  25.952  1.00 31.22     0.419 P 
HETATM   10  O1A PAP A 125      40.799  -6.335  25.934  1.00 32.37    -0.624 OA
HETATM   11  O2A PAP A 125      43.042  -5.143  25.605  1.00 32.57    -0.624 OA
BRANCH   9  12
HETATM   12  O3A PAP A 125      41.295  -4.423  27.515  1.00 29.92    -0.173 OA
BRANCH  12  13
HETATM   13  PB  PAP A 125      42.051  -4.362  28.976  1.00 26.94     0.431 P 
HETATM   14  O1B PAP A 125      42.742  -5.660  29.112  1.00 24.20    -0.616 OA
HETATM   15  O2B PAP A 125      42.964  -3.176  28.846  1.00 26.86    -0.616 OA
HETATM   16  O3B PAP A 125      40.963  -4.159  29.961  1.00 28.16    -0.616 OA
ENDBRANCH  12  13
ENDBRANCH   9  12
ENDBRANCH   8   9
ENDBRANCH   7   8
ENDBRANCH   1   7
BRANCH   3  17
HETATM   17  O3' PAP A 125      39.505  -0.087  22.823  1.00 36.20    -0.261 OA
BRANCH  17  18
HETATM   18  P   PAP A 125      39.367   1.554  23.275  1.00 39.68     0.423 P 
HETATM   19  O1  PAP A 125      40.186   2.200  22.219  1.00 40.50    -0.617 OA
HETATM   20  O2  PAP A 125      37.905   1.794  23.177  1.00 39.38    -0.617 OA
HETATM   21  O3  PAP A 125      39.878   1.645  24.677  1.00 40.59    -0.617 OA
ENDBRANCH  17  18
ENDBRANCH   3  17
BRANCH   6  22
HETATM   22  N9  PAP A 125      38.484  -4.115  21.837  1.00 29.22    -0.270 N 
HETATM   23  C4  PAP A 125      38.499  -4.719  20.552  1.00 29.28     0.170 A 
HETATM   24  N3  PAP A 125      39.027  -4.260  19.361  1.00 29.66    -0.205 NA
HETATM   25  C5  PAP A 125      37.831  -5.928  20.712  1.00 29.93     0.155 A 
HETATM   26  C2  PAP A 125      38.794  -5.144  18.362  1.00 28.29     0.202 A 
HETATM   27  N1  PAP A 125      38.168  -6.331  18.363  1.00 27.66    -0.202 NA
HETATM   28  C6  PAP A 125      37.667  -6.786  19.542  1.00 28.82     0.206 A 
HETATM   29  N6  PAP A 125      37.111  -8.011  19.614  1.00 26.39    -0.125 N 
HETATM   30  N7  PAP A 125      37.408  -6.069  22.073  1.00 30.19    -0.219 NA
HETATM   31  C8  PAP A 125      37.819  -4.986  22.663  1.00 28.80     0.182 A 
ENDBRANCH   6  22
TORSDOF 8
ENDMDL
MODEL 3
REMARK VINA RESULT:    -4.957      6.068      8.377
REMARK INTER + INTRA:          -8.620
REMARK INTER:                  -7.413
REMARK INTRA:                  -1.207
REMARK UNBOUND:                -1.345
REMARK  8 active torsions:
REMARK  status: ('A' for Active; 'I' for Inactive)
REMARK    1  A    between atoms: P_1  and  O3'_9 
REMARK    2  A    between atoms: PA_2  and  O5'_5 
REMARK    3  A    between atoms: PA_2  and  O3A_23 
REMARK    4  A    between atoms: PB_3  and  O3A_23 
REMARK    5  A    between atoms: C5'_4  and  O5'_5 
REMARK    6  A    between atoms: C5'_4  and  C4'_6 
REMARK    7  A    between atoms: C3'_8  and  O3'_9 
REMARK    8  A    between atoms: C1'_12  and  N9_31 
ROOT
HETATM    1  C4' PAP A 125      41.588  -2.828  25.855  1.00 30.66     0.178 C 
HETATM    2  O4' PAP A 125      40.824  -3.443  24.813  1.00 30.64    -0.331 OA
HETATM    3  C3' PAP A 125      42.273  -3.977  26.644  1.00 32.01     0.192 C 
HETATM    4  C2' PAP A 125      42.231  -5.101  25.616  1.00 31.03     0.231 C 
HETATM    5  O2' PAP A 125      42.363  -6.390  26.255  1.00 29.14    -0.216 OA
HETATM    6  C1' PAP A 125      40.796  -4.827  25.124  1.00 29.59     0.241 C 
ENDROOT
BRANCH   1   7
HETATM    7  C5' PAP A 125      42.565  -1.921  25.164  1.00 29.07     0.187 C 
BRANCH   7   8
HETATM    8  O5' PAP A 125      42.012  -0.623  25.261  1.00 30.13    -0.268 OA
BRANCH   8   9
HETATM    9  PA  PAP A 125      41.291   0.076  23.979  1.00 31.22     0.419 P 
HETATM   10  O1A PAP A 125      41.339   1.550  24.209  1.00 32.37    -0.624 OA
HETATM   11  O2A PAP A 125      41.898  -0.467  22.733  1.00 32.57    -0.624 OA
BRANCH   9  12
HETATM   12  O3A PAP A 125      39.626  -0.311  24.157  1.00 29.92    -0.173 OA
BRANCH  12  13
HETATM   13  PB  PAP A 125      38.171   0.353  23.765  1.00 26.94     0.431 P 
HETATM   14  O1B PAP A 125      37.225  -0.780  23.725  1.00 24.20    -0.616 OA
HETATM   15  O2B PAP A 125      37.927   1.335  24.875  1.00 26.86    -0.616 OA
HETATM   16  O3B PAP A 125      38.388   0.997  22.448  1.00 28.16    -0.616 OA
ENDBRANCH  12  13
ENDBRANCH   9  12
ENDBRANCH   8   9
ENDBRANCH   7   8
ENDBRANCH   1   7
BRANCH   3  17
HETATM   17  O3' PAP A 125      41.474  -4.301  27.818  1.00 36.20    -0.261 OA
BRANCH  17  18
HETATM   18  P   PAP A 125      42.176  -4.328  29.374  1.00 39.68     0.423 P 
HETATM   19  O1  PAP A 125      40.979  -4.092  30.219  1.00 40.50    -0.617 OA
HETATM   20  O2  PAP A 125      42.741  -5.699  29.450  1.00 39.38    -0.617 OA
HETATM   21  O3  PAP A 125      43.227  -3.265  29.377  1.00 40.59    -0.617 OA
ENDBRANCH  17  18
ENDBRANCH   3  17
BRANCH   6  22
HETATM   22  N9  PAP A 125      40.389  -5.479  23.858  1.00 29.22    -0.270 N 
HETATM   23  C4  PAP A 125      39.294  -5.229  22.990  1.00 29.28     0.170 A 
HETATM   24  N3  PAP A 125      38.272  -4.306  23.093  1.00 29.66    -0.205 NA
HETATM   25  C5  PAP A 125      39.435  -6.147  21.955  1.00 29.93     0.155 A 
HETATM   26  C2  PAP A 125      37.413  -4.425  22.053  1.00 28.29     0.202 A 
HETATM   27  N1  PAP A 125      37.414  -5.254  20.999  1.00 27.66    -0.202 NA
HETATM   28  C6  PAP A 125      38.433  -6.148  20.893  1.00 28.82     0.206 A 
HETATM   29  N6  PAP A 125      38.529  -6.939  19.807  1.00 26.39    -0.125 N 
HETATM   30  N7  PAP A 125      40.597  -6.953  22.180  1.00 30.19    -0.219 NA
HETATM   31  C8  PAP A 125      41.097  -6.512  23.296  1.00 28.80     0.182 A 
ENDBRANCH   6  22
TORSDOF 8
ENDMDL
MODEL 4
REMARK VINA RESULT:    -4.941      6.601     10.330
REMARK INTER + INTRA:          -8.596
REMARK INTER:                  -7.291
REMARK INTRA:                  -1.305
REMARK UNBOUND:                -1.345
REMARK  8 active torsions:
REMARK  status: ('A' for Active; 'I' for Inactive)
REMARK    1  A    between atoms: P_1  and  O3'_9 
REMARK    2  A    between atoms: PA_2  and  O5'_5 
REMARK    3  A    between atoms: PA_2  and  O3A_23 
REMARK    4  A    between atoms: PB_3  and  O3A_23 
REMARK    5  A    between atoms: C5'_4  and  O5'_5 
REMARK    6  A    between atoms: C5'_4  and  C4'_6 
REMARK    7  A    between atoms: C3'_8  and  O3'_9 
REMARK    8  A    between atoms: C1'_12  and  N9_31 
ROOT
HETATM    1  C4' PAP A 125      40.123  -3.034  23.856  1.00 30.66     0.178 C 
HETATM    2  O4' PAP A 125      40.096  -3.991  24.919  1.00 30.64    -0.331 OA
HETATM    3  C3' PAP A 125      41.463  -2.258  23.987  1.00 32.01     0.192 C 
HETATM    4  C2' PAP A 125      42.286  -3.238  24.814  1.00 31.03     0.231 C 
HETATM    5  O2' PAP A 125      43.381  -2.564  25.473  1.00 29.14    -0.216 OA
HETATM    6  C1' PAP A 125      41.157  -3.628  25.789  1.00 29.59     0.241 C 
ENDROOT
BRANCH   1   7
HETATM    7  C5' PAP A 125      40.024  -3.831  22.588  1.00 29.07     0.187 C 
BRANCH   7   8
HETATM    8  O5' PAP A 125      38.756  -3.521  22.043  1.00 30.13    -0.268 OA
BRANCH   8   9
HETATM    9  PA  PAP A 125      37.522  -4.579  22.146  1.00 31.22     0.419 P 
HETATM   10  O1A PAP A 125      38.012  -5.732  22.958  1.00 32.37    -0.624 OA
HETATM   11  O2A PAP A 125      36.306  -3.854  22.605  1.00 32.57    -0.624 OA
BRANCH   9  12
HETATM   12  O3A PAP A 125      37.378  -5.229  20.561  1.00 29.92    -0.173 OA
BRANCH  12  13
HETATM   13  PB  PAP A 125      38.377  -5.704  19.342  1.00 26.94     0.431 P 
HETATM   14  O1B PAP A 125      39.495  -6.404  20.007  1.00 24.20    -0.616 OA
HETATM   15  O2B PAP A 125      37.501  -6.583  18.496  1.00 26.86    -0.616 OA
HETATM   16  O3B PAP A 125      38.777  -4.448  18.665  1.00 28.16    -0.616 OA
ENDBRANCH  12  13
ENDBRANCH   9  12
ENDBRANCH   8   9
ENDBRANCH   7   8
ENDBRANCH   1   7
BRANCH   3  17
HETATM   17  O3' PAP A 125      41.233  -1.015  24.711  1.00 36.20    -0.261 OA
BRANCH  17  18
HETATM   18  P   PAP A 125      40.647   0.371  23.905  1.00 39.68     0.423 P 
HETATM   19  O1  PAP A 125      41.126   0.110  22.525  1.00 40.50    -0.617 OA
HETATM   20  O2  PAP A 125      39.178   0.260  24.095  1.00 39.38    -0.617 OA
HETATM   21  O3  PAP A 125      41.237   1.548  24.615  1.00 40.59    -0.617 OA
ENDBRANCH  17  18
ENDBRANCH   3  17
BRANCH   6  22
HETATM   22  N9  PAP A 125      41.380  -4.834  26.619  1.00 29.22    -0.270 N 
HETATM   23  C4  PAP A 125      41.389  -5.008  28.028  1.00 29.28     0.170 A 
HETATM   24  N3  PAP A 125      41.211  -4.083  29.038  1.00 29.66    -0.205 NA
HETATM   25  C5  PAP A 125      41.639  -6.362  28.224  1.00 29.93     0.155 A 
HETATM   26  C2  PAP A 125      41.327  -4.672  30.252  1.00 28.29     0.202 A 
HETATM   27  N1  PAP A 125      41.568  -5.946  30.594  1.00 27.66    -0.202 NA
HETATM   28  C6  PAP A 125      41.725  -6.855  29.596  1.00 28.82     0.206 A 
HETATM   29  N6  PAP A 125      41.878  -8.161  29.887  1.00 26.39    -0.125 N 
HETATM   30  N7  PAP A 125      41.784  -7.014  26.958  1.00 30.19    -0.219 NA
HETATM   31  C8  PAP A 125      41.622  -6.072  26.077  1.00 28.80     0.182 A 
ENDBRANCH   6  22
TORSDOF 8
ENDMDL
MODEL 5
REMARK VINA RESULT:    -4.851     17.772     19.138
REMARK INTER + INTRA:          -8.464
REMARK INTER:                  -7.113
REMARK INTRA:                  -1.351
REMARK UNBOUND:                -1.345
REMARK  8 active torsions:
REMARK  status: ('A' for Active; 'I' for Inactive)
REMARK    1  A    between atoms: P_1  and  O3'_9 
REMARK    2  A    between atoms: PA_2  and  O5'_5 
REMARK    3  A    between atoms: PA_2  and  O3A_23 
REMARK    4  A    between atoms: PB_3  and  O3A_23 
REMARK    5  A    between atoms: C5'_4  and  O5'_5 
REMARK    6  A    between atoms: C5'_4  and  C4'_6 
REMARK    7  A    between atoms: C3'_8  and  O3'_9 
REMARK    8  A    between atoms: C1'_12  and  N9_31 
ROOT
HETATM    1  C4' PAP A 125      22.866  -6.819  10.238  1.00 30.66     0.178 C 
HETATM    2  O4' PAP A 125      22.610  -6.684  11.640  1.00 30.64    -0.331 OA
HETATM    3  C3' PAP A 125      22.397  -8.243   9.834  1.00 32.01     0.192 C 
HETATM    4  C2' PAP A 125      21.434  -8.566  10.970  1.00 31.03     0.231 C 
HETATM    5  O2' PAP A 125      21.236  -9.992  11.089  1.00 29.14    -0.216 OA
HETATM    6  C1' PAP A 125      22.308  -7.991  12.102  1.00 29.59     0.241 C 
ENDROOT
BRANCH   1   7
HETATM    7  C5' PAP A 125      22.079  -5.727   9.574  1.00 29.07     0.187 C 
BRANCH   7   8
HETATM    8  O5' PAP A 125      22.289  -5.898   8.186  1.00 30.13    -0.268 OA
BRANCH   8   9
HETATM    9  PA  PAP A 125      23.490  -5.109   7.419  1.00 31.22     0.419 P 
HETATM   10  O1A PAP A 125      24.486  -4.725   8.463  1.00 32.37    -0.624 OA
HETATM   11  O2A PAP A 125      23.950  -5.935   6.270  1.00 32.57    -0.624 OA
BRANCH   9  12
HETATM   12  O3A PAP A 125      22.790  -3.610   6.951  1.00 29.92    -0.173 OA
BRANCH  12  13
HETATM   13  PB  PAP A 125      22.069  -2.321   7.679  1.00 26.94     0.431 P 
HETATM   14  O1B PAP A 125      22.958  -1.960   8.801  1.00 24.20    -0.616 OA
HETATM   15  O2B PAP A 125      21.997  -1.298   6.582  1.00 26.86    -0.616 OA
HETATM   16  O3B PAP A 125      20.740  -2.818   8.106  1.00 28.16    -0.616 OA
ENDBRANCH  12  13
ENDBRANCH   9  12
ENDBRANCH   8   9
ENDBRANCH   7   8
ENDBRANCH   1   7
BRANCH   3  17
HETATM   17  O3' PAP A 125      23.540  -9.147   9.834  1.00 36.20    -0.261 OA
BRANCH  17  18
HETATM   18  P   PAP A 125      24.527  -9.309   8.451  1.00 39.68     0.423 P 
HETATM   19  O1  PAP A 125      25.071 -10.674   8.660  1.00 40.50    -0.617 OA
HETATM   20  O2  PAP A 125      23.551  -9.181   7.340  1.00 39.38    -0.617 OA
HETATM   21  O3  PAP A 125      25.503  -8.177   8.500  1.00 40.59    -0.617 OA
ENDBRANCH  17  18
ENDBRANCH   3  17
BRANCH   6  22
HETATM   22  N9  PAP A 125      21.649  -7.775  13.410  1.00 29.22    -0.270 N 
HETATM   23  C4  PAP A 125      21.348  -8.677  14.464  1.00 29.28     0.170 A 
HETATM   24  N3  PAP A 125      21.572 -10.036  14.560  1.00 29.66    -0.205 NA
HETATM   25  C5  PAP A 125      20.737  -7.901  15.442  1.00 29.93     0.155 A 
HETATM   26  C2  PAP A 125      21.101 -10.517  15.735  1.00 28.29     0.202 A 
HETATM   27  N1  PAP A 125      20.492  -9.901  16.759  1.00 27.66    -0.202 NA
HETATM   28  C6  PAP A 125      20.291  -8.560  16.667  1.00 28.82     0.206 A 
HETATM   29  N6  PAP A 125      19.767  -7.881  17.705  1.00 26.39    -0.125 N 
HETATM   30  N7  PAP A 125      20.658  -6.541  15.000  1.00 30.19    -0.219 NA
HETATM   31  C8  PAP A 125      21.203  -6.543  13.820  1.00 28.80     0.182 A 
ENDBRANCH   6  22
TORSDOF 8
ENDMDL
MODEL 6
REMARK VINA RESULT:    -4.813     17.619     19.395
REMARK INTER + INTRA:          -8.408
REMARK INTER:                  -7.059
REMARK INTRA:                  -1.349
REMARK UNBOUND:                -1.345
REMARK  8 active torsions:
REMARK  status: ('A' for Active; 'I' for Inactive)
REMARK    1  A    between atoms: P_1  and  O3'_9 
REMARK    2  A    between atoms: PA_2  and  O5'_5 
REMARK    3  A    between atoms: PA_2  and  O3A_23 
REMARK    4  A    between atoms: PB_3  and  O3A_23 
REMARK    5  A    between atoms: C5'_4  and  O5'_5 
REMARK    6  A    between atoms: C5'_4  and  C4'_6 
REMARK    7  A    between atoms: C3'_8  and  O3'_9 
REMARK    8  A    between atoms: C1'_12  and  N9_31 
ROOT
HETATM    1  C4' PAP A 125      19.170 -10.423  16.615  1.00 30.66     0.178 C 
HETATM    2  O4' PAP A 125      19.615  -9.851  15.380  1.00 30.64    -0.331 OA
HETATM    3  C3' PAP A 125      20.346 -10.286  17.620  1.00 32.01     0.192 C 
HETATM    4  C2' PAP A 125      21.149  -9.162  16.976  1.00 31.03     0.231 C 
HETATM    5  O2' PAP A 125      22.516  -9.172  17.443  1.00 29.14    -0.216 OA
HETATM    6  C1' PAP A 125      21.014  -9.668  15.526  1.00 29.59     0.241 C 
ENDROOT
BRANCH   1   7
HETATM    7  C5' PAP A 125      17.955  -9.636  17.014  1.00 29.07     0.187 C 
BRANCH   7   8
HETATM    8  O5' PAP A 125      17.917  -8.527  16.137  1.00 30.13    -0.268 OA
BRANCH   8   9
HETATM    9  PA  PAP A 125      17.895  -7.005  16.717  1.00 31.22     0.419 P 
HETATM   10  O1A PAP A 125      18.756  -6.997  17.935  1.00 32.37    -0.624 OA
HETATM   11  O2A PAP A 125      18.223  -6.066  15.610  1.00 32.57    -0.624 OA
BRANCH   9  12
HETATM   12  O3A PAP A 125      16.305  -6.804  17.340  1.00 29.92    -0.173 OA
BRANCH  12  13
HETATM   13  PB  PAP A 125      15.467  -5.682  18.204  1.00 26.94     0.431 P 
HETATM   14  O1B PAP A 125      16.210  -5.534  19.472  1.00 24.20    -0.616 OA
HETATM   15  O2B PAP A 125      15.492  -4.470  17.318  1.00 26.86    -0.616 OA
HETATM   16  O3B PAP A 125      14.113  -6.260  18.370  1.00 28.16    -0.616 OA
ENDBRANCH  12  13
ENDBRANCH   9  12
ENDBRANCH   8   9
ENDBRANCH   7   8
ENDBRANCH   1   7
BRANCH   3  17
HETATM   17  O3' PAP A 125      21.103 -11.529  17.652  1.00 36.20    -0.261 OA
BRANCH  17  18
HETATM   18  P   PAP A 125      21.045 -12.554  19.016  1.00 39.68     0.423 P 
HETATM   19  O1  PAP A 125      19.879 -11.986  19.737  1.00 40.50    -0.617 OA
HETATM   20  O2  PAP A 125      20.822 -13.890  18.408  1.00 39.38    -0.617 OA
HETATM   21  O3  PAP A 125      22.377 -12.435  19.685  1.00 40.59    -0.617 OA
ENDBRANCH  17  18
ENDBRANCH   3  17
BRANCH   6  22
HETATM   22  N9  PAP A 125      21.373  -8.714  14.451  1.00 29.22    -0.270 N 
HETATM   23  C4  PAP A 125      21.687  -8.925  13.082  1.00 29.28     0.170 A 
HETATM   24  N3  PAP A 125      21.769 -10.100  12.362  1.00 29.66    -0.205 NA
HETATM   25  C5  PAP A 125      21.927  -7.657  12.566  1.00 29.93     0.155 A 
HETATM   26  C2  PAP A 125      22.129  -9.851  11.080  1.00 28.29     0.202 A 
HETATM   27  N1  PAP A 125      22.396  -8.699  10.447  1.00 27.66    -0.202 NA
HETATM   28  C6  PAP A 125      22.296  -7.544  11.157  1.00 28.82     0.206 A 
HETATM   29  N6  PAP A 125      22.464  -6.356  10.545  1.00 26.39    -0.125 N 
HETATM   30  N7  PAP A 125      21.766  -6.677  13.598  1.00 30.19    -0.219 NA
HETATM   31  C8  PAP A 125      21.447  -7.359  14.657  1.00 28.80     0.182 A 
ENDBRANCH   6  22
TORSDOF 8
ENDMDL
MODEL 7
REMARK VINA RESULT:    -4.790     17.752     19.096
REMARK INTER + INTRA:          -8.375
REMARK INTER:                  -7.082
REMARK INTRA:                  -1.293
REMARK UNBOUND:                -1.345
REMARK  8 active torsions:
REMARK  status: ('A' for Active; 'I' for Inactive)
REMARK    1  A    between atoms: P_1  and  O3'_9 
REMARK    2  A    between atoms: PA_2  and  O5'_5 
REMARK    3  A    between atoms: PA_2  and  O3A_23 
REMARK    4  A    between atoms: PB_3  and  O3A_23 
REMARK    5  A    between atoms: C5'_4  and  O5'_5 
REMARK    6  A    between atoms: C5'_4  and  C4'_6 
REMARK    7  A    between atoms: C3'_8  and  O3'_9 
REMARK    8  A    between atoms: C1'_12  and  N9_31 
ROOT
HETATM    1  C4' PAP A 125      22.148  -8.516  11.829  1.00 30.66     0.178 C 
HETATM    2  O4' PAP A 125      21.973  -8.226  13.220  1.00 30.64    -0.331 OA
HETATM    3  C3' PAP A 125      21.514  -9.912  11.580  1.00 32.01     0.192 C 
HETATM    4  C2' PAP A 125      20.575 -10.021  12.776  1.00 31.03     0.231 C 
HETATM    5  O2' PAP A 125      20.234 -11.400  13.039  1.00 29.14    -0.216 OA
HETATM    6  C1' PAP A 125      21.557  -9.445  13.816  1.00 29.59     0.241 C 
ENDROOT
BRANCH   1   7
HETATM    7  C5' PAP A 125      21.451  -7.409  11.092  1.00 29.07     0.187 C 
BRANCH   7   8
HETATM    8  O5' PAP A 125      22.468  -6.495  10.730  1.00 30.13    -0.268 OA
BRANCH   8   9
HETATM    9  PA  PAP A 125      22.947  -6.350   9.181  1.00 31.22     0.419 P 
HETATM   10  O1A PAP A 125      21.848  -6.905   8.337  1.00 32.37    -0.624 OA
HETATM   11  O2A PAP A 125      23.383  -4.947   8.943  1.00 32.57    -0.624 OA
BRANCH   9  12
HETATM   12  O3A PAP A 125      24.213  -7.501   9.011  1.00 29.92    -0.173 OA
BRANCH  12  13
HETATM   13  PB  PAP A 125      25.372  -7.885   7.908  1.00 26.94     0.431 P 
HETATM   14  O1B PAP A 125      26.105  -9.024   8.494  1.00 24.20    -0.616 OA
HETATM   15  O2B PAP A 125      24.582  -8.216   6.673  1.00 26.86    -0.616 OA
HETATM   16  O3B PAP A 125      26.189  -6.656   7.770  1.00 28.16    -0.616 OA
ENDBRANCH  12  13
ENDBRANCH   9  12
ENDBRANCH   8   9
ENDBRANCH   7   8
ENDBRANCH   1   7
BRANCH   3  17
HETATM   17  O3' PAP A 125      22.553 -10.930  11.626  1.00 36.20    -0.261 OA
BRANCH  17  18
HETATM   18  P   PAP A 125      23.064 -11.724  10.204  1.00 39.68     0.423 P 
HETATM   19  O1  PAP A 125      21.977 -12.721  10.040  1.00 40.50    -0.617 OA
HETATM   20  O2  PAP A 125      23.069 -10.626   9.204  1.00 39.38    -0.617 OA
HETATM   21  O3  PAP A 125      24.432 -12.256  10.489  1.00 40.59    -0.617 OA
ENDBRANCH  17  18
ENDBRANCH   3  17
BRANCH   6  22
HETATM   22  N9  PAP A 125      20.985  -9.039  15.120  1.00 29.22    -0.270 N 
HETATM   23  C4  PAP A 125      19.924  -8.149  15.437  1.00 29.28     0.170 A 
HETATM   24  N3  PAP A 125      19.128  -7.385  14.606  1.00 29.66    -0.205 NA
HETATM   25  C5  PAP A 125      19.830  -8.177  16.824  1.00 29.93     0.155 A 
HETATM   26  C2  PAP A 125      18.249  -6.651  15.328  1.00 28.29     0.202 A 
HETATM   27  N1  PAP A 125      18.047  -6.568  16.652  1.00 27.66    -0.202 NA
HETATM   28  C6  PAP A 125      18.821  -7.337  17.463  1.00 28.82     0.206 A 
HETATM   29  N6  PAP A 125      18.597  -7.358  18.791  1.00 26.39    -0.125 N 
HETATM   30  N7  PAP A 125      20.819  -9.065  17.357  1.00 30.19    -0.219 NA
HETATM   31  C8  PAP A 125      21.447  -9.526  16.316  1.00 28.80     0.182 A 
ENDBRANCH   6  22
TORSDOF 8
ENDMDL
MODEL 8
REMARK VINA RESULT:    -4.783      5.919      7.585
REMARK INTER + INTRA:          -8.365
REMARK INTER:                  -7.144
REMARK INTRA:                  -1.220
REMARK UNBOUND:                -1.345
REMARK  8 active torsions:
REMARK  status: ('A' for Active; 'I' for Inactive)
REMARK    1  A    between atoms: P_1  and  O3'_9 
REMARK    2  A    between atoms: PA_2  and  O5'_5 
REMARK    3  A    between atoms: PA_2  and  O3A_23 
REMARK    4  A    between atoms: PB_3  and  O3A_23 
REMARK    5  A    between atoms: C5'_4  and  O5'_5 
REMARK    6  A    between atoms: C5'_4  and  C4'_6 
REMARK    7  A    between atoms: C3'_8  and  O3'_9 
REMARK    8  A    between atoms: C1'_12  and  N9_31 
ROOT
HETATM    1  C4' PAP A 125      39.859  -5.391  23.927  1.00 30.66     0.178 C 
HETATM    2  O4' PAP A 125      39.657  -4.034  24.336  1.00 30.64    -0.331 OA
HETATM    3  C3' PAP A 125      40.179  -5.356  22.407  1.00 32.01     0.192 C 
HETATM    4  C2' PAP A 125      40.641  -3.914  22.241  1.00 31.03     0.231 C 
HETATM    5  O2' PAP A 125      40.537  -3.495  20.862  1.00 29.14    -0.216 OA
HETATM    6  C1' PAP A 125      39.557  -3.283  23.136  1.00 29.59     0.241 C 
ENDROOT
BRANCH   1   7
HETATM    7  C5' PAP A 125      40.999  -5.902  24.760  1.00 29.07     0.187 C 
BRANCH   7   8
HETATM    8  O5' PAP A 125      40.400  -6.550  25.865  1.00 30.13    -0.268 OA
BRANCH   8   9
HETATM    9  PA  PAP A 125      41.314  -7.220  27.035  1.00 31.22     0.419 P 
HETATM   10  O1A PAP A 125      40.587  -8.435  27.505  1.00 32.37    -0.624 OA
HETATM   11  O2A PAP A 125      42.704  -7.377  26.527  1.00 32.57    -0.624 OA
BRANCH   9  12
HETATM   12  O3A PAP A 125      41.186  -6.130  28.359  1.00 29.92    -0.173 OA
BRANCH  12  13
HETATM   13  PB  PAP A 125      41.676  -4.605  28.734  1.00 26.94     0.431 P 
HETATM   14  O1B PAP A 125      41.258  -3.769  27.590  1.00 24.20    -0.616 OA
HETATM   15  O2B PAP A 125      40.956  -4.313  30.019  1.00 26.86    -0.616 OA
HETATM   16  O3B PAP A 125      43.146  -4.704  28.894  1.00 28.16    -0.616 OA
ENDBRANCH  12  13
ENDBRANCH   9  12
ENDBRANCH   8   9
ENDBRANCH   7   8
ENDBRANCH   1   7
BRANCH   3  17
HETATM   17  O3' PAP A 125      38.961  -5.614  21.651  1.00 36.20    -0.261 OA
BRANCH  17  18
HETATM   18  P   PAP A 125      38.957  -6.720  20.351  1.00 39.68     0.423 P 
HETATM   19  O1  PAP A 125      39.911  -7.739  20.853  1.00 40.50    -0.617 OA
HETATM   20  O2  PAP A 125      37.538  -7.154  20.300  1.00 39.38    -0.617 OA
HETATM   21  O3  PAP A 125      39.371  -5.945  19.141  1.00 40.59    -0.617 OA
ENDBRANCH  17  18
ENDBRANCH   3  17
BRANCH   6  22
HETATM   22  N9  PAP A 125      39.775  -1.882  23.562  1.00 29.22    -0.270 N 
HETATM   23  C4  PAP A 125      38.857  -0.825  23.798  1.00 29.28     0.170 A 
HETATM   24  N3  PAP A 125      37.482  -0.799  23.675  1.00 29.66    -0.205 NA
HETATM   25  C5  PAP A 125      39.641   0.256  24.188  1.00 29.93     0.155 A 
HETATM   26  C2  PAP A 125      36.997   0.430  23.974  1.00 28.29     0.202 A 
HETATM   27  N1  PAP A 125      37.621   1.555  24.354  1.00 27.66    -0.202 NA
HETATM   28  C6  PAP A 125      38.973   1.519  24.490  1.00 28.82     0.206 A 
HETATM   29  N6  PAP A 125      39.636   2.595  24.957  1.00 26.39    -0.125 N 
HETATM   30  N7  PAP A 125      41.021  -0.125  24.190  1.00 30.19    -0.219 NA
HETATM   31  C8  PAP A 125      41.023  -1.371  23.819  1.00 28.80     0.182 A 
ENDBRANCH   6  22
TORSDOF 8
ENDMDL
MODEL 9
REMARK VINA RESULT:    -4.781      1.333      2.268
REMARK INTER + INTRA:          -8.363
REMARK INTER:                  -7.075
REMARK INTRA:                  -1.288
REMARK UNBOUND:                -1.345
REMARK  8 active torsions:
REMARK  status: ('A' for Active; 'I' for Inactive)
REMARK    1  A    between atoms: P_1  and  O3'_9 
REMARK    2  A    between atoms: PA_2  and  O5'_5 
REMARK    3  A    between atoms: PA_2  and  O3A_23 
REMARK    4  A    between atoms: PB_3  and  O3A_23 
REMARK    5  A    between atoms: C5'_4  and  O5'_5 
REMARK    6  A    between atoms: C5'_4  and  C4'_6 
REMARK    7  A    between atoms: C3'_8  and  O3'_9 
REMARK    8  A    between atoms: C1'_12  and  N9_31 
ROOT
HETATM    1  C4' PAP A 125      39.326  -6.904  20.672  1.00 30.66     0.178 C 
HETATM    2  O4' PAP A 125      38.698  -5.918  19.847  1.00 30.64    -0.331 OA
HETATM    3  C3' PAP A 125      39.929  -7.969  19.716  1.00 32.01     0.192 C 
HETATM    4  C2' PAP A 125      40.022  -7.175  18.419  1.00 31.03     0.231 C 
HETATM    5  O2' PAP A 125      40.096  -8.057  17.278  1.00 29.14    -0.216 OA
HETATM    6  C1' PAP A 125      38.651  -6.481  18.545  1.00 29.59     0.241 C 
ENDROOT
BRANCH   1   7
HETATM    7  C5' PAP A 125      40.365  -6.167  21.467  1.00 29.07     0.187 C 
BRANCH   7   8
HETATM    8  O5' PAP A 125      39.807  -4.895  21.735  1.00 30.13    -0.268 OA
BRANCH   8   9
HETATM    9  PA  PAP A 125      39.007  -4.610  23.124  1.00 31.22     0.419 P 
HETATM   10  O1A PAP A 125      37.563  -4.476  22.769  1.00 32.37    -0.624 OA
HETATM   11  O2A PAP A 125      39.399  -5.641  24.123  1.00 32.57    -0.624 OA
BRANCH   9  12
HETATM   12  O3A PAP A 125      39.468  -3.014  23.567  1.00 29.92    -0.173 OA
BRANCH  12  13
HETATM   13  PB  PAP A 125      39.104  -1.472  23.120  1.00 26.94     0.431 P 
HETATM   14  O1B PAP A 125      39.918  -0.610  24.001  1.00 24.20    -0.616 OA
HETATM   15  O2B PAP A 125      39.492  -1.429  21.669  1.00 26.86    -0.616 OA
HETATM   16  O3B PAP A 125      37.645  -1.344  23.342  1.00 28.16    -0.616 OA
ENDBRANCH  12  13
ENDBRANCH   9  12
ENDBRANCH   8   9
ENDBRANCH   7   8
ENDBRANCH   1   7
BRANCH   3  17
HETATM   17  O3' PAP A 125      39.002  -9.085  19.589  1.00 36.20    -0.261 OA
BRANCH  17  18
HETATM   18  P   PAP A 125      39.480 -10.670  20.007  1.00 39.68     0.423 P 
HETATM   19  O1  PAP A 125      40.113 -11.109  18.738  1.00 40.50    -0.617 OA
HETATM   20  O2  PAP A 125      40.417 -10.439  21.134  1.00 39.38    -0.617 OA
HETATM   21  O3  PAP A 125      38.235 -11.386  20.424  1.00 40.59    -0.617 OA
ENDBRANCH  17  18
ENDBRANCH   3  17
BRANCH   6  22
HETATM   22  N9  PAP A 125      38.404  -5.325  17.654  1.00 29.22    -0.270 N 
HETATM   23  C4  PAP A 125      37.607  -5.201  16.485  1.00 29.28     0.170 A 
HETATM   24  N3  PAP A 125      36.843  -6.145  15.828  1.00 29.66    -0.205 NA
HETATM   25  C5  PAP A 125      37.753  -3.877  16.086  1.00 29.93     0.155 A 
HETATM   26  C2  PAP A 125      36.262  -5.609  14.729  1.00 28.29     0.202 A 
HETATM   27  N1  PAP A 125      36.314  -4.369  14.220  1.00 27.66    -0.202 NA
HETATM   28  C6  PAP A 125      37.053  -3.440  14.881  1.00 28.82     0.206 A 
HETATM   29  N6  PAP A 125      37.064  -2.159  14.462  1.00 26.39    -0.125 N 
HETATM   30  N7  PAP A 125      38.628  -3.194  16.990  1.00 30.19    -0.219 NA
HETATM   31  C8  PAP A 125      38.964  -4.090  17.869  1.00 28.80     0.182 A 
ENDBRANCH   6  22
TORSDOF 8
ENDMDL
