MODEL 1
REMARK VINA RESULT:    -5.974      0.000      0.000
REMARK INTER + INTRA:         -10.039
REMARK INTER:                  -8.768
REMARK INTRA:                  -1.270
REMARK UNBOUND:                -1.270
REMARK  8 active torsions:
REMARK  status: ('A' for Active; 'I' for Inactive)
REMARK    1  A    between atoms: P_1  and  O3'_9 
REMARK    2  A    between atoms: PA_2  and  O5'_5 
REMARK    3  A    between atoms: PA_2  and  O3A_23 
REMARK    4  A    between atoms: PB_3  and  O3A_23 
REMARK    5  A    between atoms: C5'_4  and  O5'_5 
REMARK    6  A    between atoms: C5'_4  and  C4'_6 
REMARK    7  A    between atoms: C3'_8  and  O3'_9 
REMARK    8  A    between atoms: C1'_12  and  N9_31 
ROOT
HETATM    1  C4' PAP A 125      39.630   3.048  25.081  1.00 30.66     0.178 C 
HETATM    2  O4' PAP A 125      38.861   1.844  25.008  1.00 30.64    -0.331 OA
HETATM    3  C3' PAP A 125      40.843   2.862  24.129  1.00 32.01     0.192 C 
HETATM    4  C2' PAP A 125      40.328   1.756  23.216  1.00 31.03     0.231 C 
HETATM    5  O2' PAP A 125      41.422   1.076  22.562  1.00 29.14    -0.216 OA
HETATM    6  C1' PAP A 125      39.680   0.907  24.327  1.00 29.59     0.241 C 
ENDROOT
BRANCH   1   7
HETATM    7  C5' PAP A 125      38.705   4.150  24.652  1.00 29.07     0.187 C 
BRANCH   7   8
HETATM    8  O5' PAP A 125      37.513   3.953  25.388  1.00 30.13    -0.268 OA
BRANCH   8   9
HETATM    9  PA  PAP A 125      36.098   3.682  24.629  1.00 31.22     0.419 P 
HETATM   10  O1A PAP A 125      36.421   3.434  23.193  1.00 32.37    -0.624 OA
HETATM   11  O2A PAP A 125      35.344   2.639  25.376  1.00 32.57    -0.624 OA
BRANCH   9  12
HETATM   12  O3A PAP A 125      35.318   5.214  24.612  1.00 29.92    -0.173 OA
BRANCH  12  13
HETATM   13  PB  PAP A 125      35.605   6.722  24.017  1.00 26.94     0.431 P 
HETATM   14  O1B PAP A 125      36.851   7.168  24.673  1.00 24.20    -0.616 OA
HETATM   15  O2B PAP A 125      35.723   6.496  22.537  1.00 26.86    -0.616 OA
HETATM   16  O3B PAP A 125      34.413   7.516  24.397  1.00 28.16    -0.616 OA
ENDBRANCH  12  13
ENDBRANCH   9  12
ENDBRANCH   8   9
ENDBRANCH   7   8
ENDBRANCH   1   7
BRANCH   3  17
HETATM   17  O3' PAP A 125      41.998   2.421  24.898  1.00 36.20    -0.261 OA
BRANCH  17  18
HETATM   18  P   PAP A 125      43.266   3.502  25.269  1.00 39.68     0.423 P 
HETATM   19  O1  PAP A 125      43.549   4.067  23.926  1.00 40.50    -0.617 OA
HETATM   20  O2  PAP A 125      42.624   4.438  26.226  1.00 39.38    -0.617 OA
HETATM   21  O3  PAP A 125      44.346   2.680  25.898  1.00 40.59    -0.617 OA
ENDBRANCH  17  18
ENDBRANCH   3  17
BRANCH   6  22
HETATM   22  N9  PAP A 125      38.742  -0.154  23.895  1.00 29.22    -0.270 N 
HETATM   23  C4  PAP A 125      38.938  -1.545  23.687  1.00 29.28     0.170 A 
HETATM   24  N3  PAP A 125      40.081  -2.309  23.813  1.00 29.66    -0.205 NA
HETATM   25  C5  PAP A 125      37.695  -2.032  23.297  1.00 29.93     0.155 A 
HETATM   26  C2  PAP A 125      39.832  -3.600  23.490  1.00 28.29     0.202 A 
HETATM   27  N1  PAP A 125      38.703  -4.208  23.096  1.00 27.66    -0.202 NA
HETATM   28  C6  PAP A 125      37.577  -3.455  22.992  1.00 28.82     0.206 A 
HETATM   29  N6  PAP A 125      36.399  -4.035  22.689  1.00 26.39    -0.125 N 
HETATM   30  N7  PAP A 125      36.747  -0.959  23.261  1.00 30.19    -0.219 NA
HETATM   31  C8  PAP A 125      37.421   0.093  23.617  1.00 28.80     0.182 A 
ENDBRANCH   6  22
TORSDOF 8
ENDMDL
MODEL 2
REMARK VINA RESULT:    -5.781      1.739      2.551
REMARK INTER + INTRA:          -9.755
REMARK INTER:                  -8.457
REMARK INTRA:                  -1.298
REMARK UNBOUND:                -1.270
REMARK  8 active torsions:
REMARK  status: ('A' for Active; 'I' for Inactive)
REMARK    1  A    between atoms: P_1  and  O3'_9 
REMARK    2  A    between atoms: PA_2  and  O5'_5 
REMARK    3  A    between atoms: PA_2  and  O3A_23 
REMARK    4  A    between atoms: PB_3  and  O3A_23 
REMARK    5  A    between atoms: C5'_4  and  O5'_5 
REMARK    6  A    between atoms: C5'_4  and  C4'_6 
REMARK    7  A    between atoms: C3'_8  and  O3'_9 
REMARK    8  A    between atoms: C1'_12  and  N9_31 
ROOT
HETATM    1  C4' PAP A 125      37.541   0.962  24.479  1.00 30.66     0.178 C 
HETATM    2  O4' PAP A 125      37.342  -0.436  24.241  1.00 30.64    -0.331 OA
HETATM    3  C3' PAP A 125      38.744   1.397  23.598  1.00 32.01     0.192 C 
HETATM    4  C2' PAP A 125      38.754   0.289  22.552  1.00 31.03     0.231 C 
HETATM    5  O2' PAP A 125      40.047   0.194  21.914  1.00 29.14    -0.216 OA
HETATM    6  C1' PAP A 125      38.491  -0.872  23.533  1.00 29.59     0.241 C 
ENDROOT
BRANCH   1   7
HETATM    7  C5' PAP A 125      36.253   1.628  24.092  1.00 29.07     0.187 C 
BRANCH   7   8
HETATM    8  O5' PAP A 125      36.614   2.917  23.636  1.00 30.13    -0.268 OA
BRANCH   8   9
HETATM    9  PA  PAP A 125      36.488   4.214  24.612  1.00 31.22     0.419 P 
HETATM   10  O1A PAP A 125      35.712   3.777  25.809  1.00 32.37    -0.624 OA
HETATM   11  O2A PAP A 125      37.844   4.793  24.818  1.00 32.57    -0.624 OA
BRANCH   9  12
HETATM   12  O3A PAP A 125      35.409   5.270  23.789  1.00 29.92    -0.173 OA
BRANCH  12  13
HETATM   13  PB  PAP A 125      34.888   6.826  23.921  1.00 26.94     0.431 P 
HETATM   14  O1B PAP A 125      33.456   6.728  24.270  1.00 24.20    -0.616 OA
HETATM   15  O2B PAP A 125      35.760   7.394  25.004  1.00 26.86    -0.616 OA
HETATM   16  O3B PAP A 125      35.138   7.426  22.590  1.00 28.16    -0.616 OA
ENDBRANCH  12  13
ENDBRANCH   9  12
ENDBRANCH   8   9
ENDBRANCH   7   8
ENDBRANCH   1   7
BRANCH   3  17
HETATM   17  O3' PAP A 125      39.960   1.384  24.399  1.00 36.20    -0.261 OA
BRANCH  17  18
HETATM   18  P   PAP A 125      41.022   2.720  24.399  1.00 39.68     0.423 P 
HETATM   19  O1  PAP A 125      40.420   3.550  23.326  1.00 40.50    -0.617 OA
HETATM   20  O2  PAP A 125      40.867   3.256  25.775  1.00 39.38    -0.617 OA
HETATM   21  O3  PAP A 125      42.388   2.169  24.141  1.00 40.59    -0.617 OA
ENDBRANCH  17  18
ENDBRANCH   3  17
BRANCH   6  22
HETATM   22  N9  PAP A 125      38.087  -2.167  22.940  1.00 29.22    -0.270 N 
HETATM   23  C4  PAP A 125      38.832  -3.136  22.217  1.00 29.28     0.170 A 
HETATM   24  N3  PAP A 125      40.161  -3.133  21.840  1.00 29.66    -0.205 NA
HETATM   25  C5  PAP A 125      37.925  -4.148  21.926  1.00 29.93     0.155 A 
HETATM   26  C2  PAP A 125      40.460  -4.249  21.133  1.00 28.29     0.202 A 
HETATM   27  N1  PAP A 125      39.700  -5.294  20.773  1.00 27.66    -0.202 NA
HETATM   28  C6  PAP A 125      38.398  -5.300  21.163  1.00 28.82     0.206 A 
HETATM   29  N6  PAP A 125      37.619  -6.368  20.905  1.00 26.39    -0.125 N 
HETATM   30  N7  PAP A 125      36.639  -3.811  22.457  1.00 30.19    -0.219 NA
HETATM   31  C8  PAP A 125      36.807  -2.655  23.028  1.00 28.80     0.182 A 
ENDBRANCH   6  22
TORSDOF 8
ENDMDL
MODEL 3
REMARK VINA RESULT:    -5.601      2.839      6.157
REMARK INTER + INTRA:          -9.491
REMARK INTER:                  -8.126
REMARK INTRA:                  -1.365
REMARK UNBOUND:                -1.270
REMARK  8 active torsions:
REMARK  status: ('A' for Active; 'I' for Inactive)
REMARK    1  A    between atoms: P_1  and  O3'_9 
REMARK    2  A    between atoms: PA_2  and  O5'_5 
REMARK    3  A    between atoms: PA_2  and  O3A_23 
REMARK    4  A    between atoms: PB_3  and  O3A_23 
REMARK    5  A    between atoms: C5'_4  and  O5'_5 
REMARK    6  A    between atoms: C5'_4  and  C4'_6 
REMARK    7  A    between atoms: C3'_8  and  O3'_9 
REMARK    8  A    between atoms: C1'_12  and  N9_31 
ROOT
HETATM    1  C4' PAP A 125      37.311   5.332  22.759  1.00 30.66     0.178 C 
HETATM    2  O4' PAP A 125      37.482   3.918  22.616  1.00 30.64    -0.331 OA
HETATM    3  C3' PAP A 125      36.746   5.571  24.185  1.00 32.01     0.192 C 
HETATM    4  C2' PAP A 125      37.162   4.282  24.883  1.00 31.03     0.231 C 
HETATM    5  O2' PAP A 125      36.354   4.047  26.057  1.00 29.14    -0.216 OA
HETATM    6  C1' PAP A 125      36.804   3.336  23.718  1.00 29.59     0.241 C 
ENDROOT
BRANCH   1   7
HETATM    7  C5' PAP A 125      38.672   5.930  22.553  1.00 29.07     0.187 C 
BRANCH   7   8
HETATM    8  O5' PAP A 125      39.517   4.846  22.219  1.00 30.13    -0.268 OA
BRANCH   8   9
HETATM    9  PA  PAP A 125      40.687   5.014  21.099  1.00 31.22     0.419 P 
HETATM   10  O1A PAP A 125      40.146   5.923  20.046  1.00 32.37    -0.624 OA
HETATM   11  O2A PAP A 125      41.954   5.394  21.781  1.00 32.57    -0.624 OA
BRANCH   9  12
HETATM   12  O3A PAP A 125      40.759   3.483  20.319  1.00 29.92    -0.173 OA
BRANCH  12  13
HETATM   13  PB  PAP A 125      39.851   2.612  19.258  1.00 26.94     0.431 P 
HETATM   14  O1B PAP A 125      38.448   2.900  19.619  1.00 24.20    -0.616 OA
HETATM   15  O2B PAP A 125      40.275   3.142  17.918  1.00 26.86    -0.616 OA
HETATM   16  O3B PAP A 125      40.247   1.202  19.484  1.00 28.16    -0.616 OA
ENDBRANCH  12  13
ENDBRANCH   9  12
ENDBRANCH   8   9
ENDBRANCH   7   8
ENDBRANCH   1   7
BRANCH   3  17
HETATM   17  O3' PAP A 125      35.297   5.694  24.118  1.00 36.20    -0.261 OA
BRANCH  17  18
HETATM   18  P   PAP A 125      34.549   7.229  24.107  1.00 39.68     0.423 P 
HETATM   19  O1  PAP A 125      35.287   7.902  25.205  1.00 40.50    -0.617 OA
HETATM   20  O2  PAP A 125      34.853   7.728  22.743  1.00 39.38    -0.617 OA
HETATM   21  O3  PAP A 125      33.090   6.984  24.325  1.00 40.59    -0.617 OA
ENDBRANCH  17  18
ENDBRANCH   3  17
BRANCH   6  22
HETATM   22  N9  PAP A 125      37.339   1.957  23.791  1.00 29.22    -0.270 N 
HETATM   23  C4  PAP A 125      38.668   1.465  23.700  1.00 29.28     0.170 A 
HETATM   24  N3  PAP A 125      39.852   2.143  23.493  1.00 29.66    -0.205 NA
HETATM   25  C5  PAP A 125      38.555   0.088  23.852  1.00 29.93     0.155 A 
HETATM   26  C2  PAP A 125      40.895   1.280  23.445  1.00 28.29     0.202 A 
HETATM   27  N1  PAP A 125      40.941  -0.055  23.567  1.00 27.66    -0.202 NA
HETATM   28  C6  PAP A 125      39.774  -0.715  23.789  1.00 28.82     0.206 A 
HETATM   29  N6  PAP A 125      39.778  -2.043  24.009  1.00 26.39    -0.125 N 
HETATM   30  N7  PAP A 125      37.180  -0.267  24.032  1.00 30.19    -0.219 NA
HETATM   31  C8  PAP A 125      36.536   0.861  23.986  1.00 28.80     0.182 A 
ENDBRANCH   6  22
TORSDOF 8
ENDMDL
MODEL 4
REMARK VINA RESULT:    -5.565      4.503      6.102
REMARK INTER + INTRA:          -9.438
REMARK INTER:                  -8.087
REMARK INTRA:                  -1.351
REMARK UNBOUND:                -1.270
REMARK  8 active torsions:
REMARK  status: ('A' for Active; 'I' for Inactive)
REMARK    1  A    between atoms: P_1  and  O3'_9 
REMARK    2  A    between atoms: PA_2  and  O5'_5 
REMARK    3  A    between atoms: PA_2  and  O3A_23 
REMARK    4  A    between atoms: PB_3  and  O3A_23 
REMARK    5  A    between atoms: C5'_4  and  O5'_5 
REMARK    6  A    between atoms: C5'_4  and  C4'_6 
REMARK    7  A    between atoms: C3'_8  and  O3'_9 
REMARK    8  A    between atoms: C1'_12  and  N9_31 
ROOT
HETATM    1  C4' PAP A 125      37.819   2.929  21.826  1.00 30.66     0.178 C 
HETATM    2  O4' PAP A 125      38.391   3.298  20.567  1.00 30.64    -0.331 OA
HETATM    3  C3' PAP A 125      38.792   1.909  22.477  1.00 32.01     0.192 C 
HETATM    4  C2' PAP A 125      40.083   2.220  21.729  1.00 31.03     0.231 C 
HETATM    5  O2' PAP A 125      41.001   1.107  21.799  1.00 29.14    -0.216 OA
HETATM    6  C1' PAP A 125      39.439   2.370  20.336  1.00 29.59     0.241 C 
ENDROOT
BRANCH   1   7
HETATM    7  C5' PAP A 125      37.693   4.206  22.606  1.00 29.07     0.187 C 
BRANCH   7   8
HETATM    8  O5' PAP A 125      36.495   4.081  23.348  1.00 30.13    -0.268 OA
BRANCH   8   9
HETATM    9  PA  PAP A 125      36.518   4.084  24.976  1.00 31.22     0.419 P 
HETATM   10  O1A PAP A 125      35.411   3.189  25.423  1.00 32.37    -0.624 OA
HETATM   11  O2A PAP A 125      37.902   3.785  25.437  1.00 32.57    -0.624 OA
BRANCH   9  12
HETATM   12  O3A PAP A 125      35.974   5.656  25.412  1.00 29.92    -0.173 OA
BRANCH  12  13
HETATM   13  PB  PAP A 125      35.462   7.023  24.652  1.00 26.94     0.431 P 
HETATM   14  O1B PAP A 125      34.179   6.657  24.018  1.00 24.20    -0.616 OA
HETATM   15  O2B PAP A 125      35.347   8.020  25.769  1.00 26.86    -0.616 OA
HETATM   16  O3B PAP A 125      36.535   7.347  23.683  1.00 28.16    -0.616 OA
ENDBRANCH  12  13
ENDBRANCH   9  12
ENDBRANCH   8   9
ENDBRANCH   7   8
ENDBRANCH   1   7
BRANCH   3  17
HETATM   17  O3' PAP A 125      38.331   0.556  22.200  1.00 36.20    -0.261 OA
BRANCH  17  18
HETATM   18  P   PAP A 125      37.823  -0.472  23.464  1.00 39.68     0.423 P 
HETATM   19  O1  PAP A 125      39.112  -1.104  23.839  1.00 40.50    -0.617 OA
HETATM   20  O2  PAP A 125      37.276   0.485  24.459  1.00 39.38    -0.617 OA
HETATM   21  O3  PAP A 125      36.775  -1.366  22.881  1.00 40.59    -0.617 OA
ENDBRANCH  17  18
ENDBRANCH   3  17
BRANCH   6  22
HETATM   22  N9  PAP A 125      40.265   3.005  19.284  1.00 29.22    -0.270 N 
HETATM   23  C4  PAP A 125      40.927   2.452  18.156  1.00 29.28     0.170 A 
HETATM   24  N3  PAP A 125      41.005   1.142  17.728  1.00 29.66    -0.205 NA
HETATM   25  C5  PAP A 125      41.534   3.533  17.526  1.00 29.93     0.155 A 
HETATM   26  C2  PAP A 125      41.768   1.048  16.612  1.00 28.29     0.202 A 
HETATM   27  N1  PAP A 125      42.414   1.986  15.904  1.00 27.66    -0.202 NA
HETATM   28  C6  PAP A 125      42.318   3.276  16.321  1.00 28.82     0.206 A 
HETATM   29  N6  PAP A 125      42.872   4.266  15.593  1.00 26.39    -0.125 N 
HETATM   30  N7  PAP A 125      41.255   4.734  18.253  1.00 30.19    -0.219 NA
HETATM   31  C8  PAP A 125      40.518   4.354  19.254  1.00 28.80     0.182 A 
ENDBRANCH   6  22
TORSDOF 8
ENDMDL
MODEL 5
REMARK VINA RESULT:    -5.516      2.621      3.064
REMARK INTER + INTRA:          -9.366
REMARK INTER:                  -7.831
REMARK INTRA:                  -1.536
REMARK UNBOUND:                -1.270
REMARK  8 active torsions:
REMARK  status: ('A' for Active; 'I' for Inactive)
REMARK    1  A    between atoms: P_1  and  O3'_9 
REMARK    2  A    between atoms: PA_2  and  O5'_5 
REMARK    3  A    between atoms: PA_2  and  O3A_23 
REMARK    4  A    between atoms: PB_3  and  O3A_23 
REMARK    5  A    between atoms: C5'_4  and  O5'_5 
REMARK    6  A    between atoms: C5'_4  and  C4'_6 
REMARK    7  A    between atoms: C3'_8  and  O3'_9 
REMARK    8  A    between atoms: C1'_12  and  N9_31 
ROOT
HETATM    1  C4' PAP A 125      39.427   4.671  22.883  1.00 30.66     0.178 C 
HETATM    2  O4' PAP A 125      39.252   3.334  23.362  1.00 30.64    -0.331 OA
HETATM    3  C3' PAP A 125      39.184   4.632  21.349  1.00 32.01     0.192 C 
HETATM    4  C2' PAP A 125      38.375   3.348  21.216  1.00 31.03     0.231 C 
HETATM    5  O2' PAP A 125      38.436   2.838  19.866  1.00 29.14    -0.216 OA
HETATM    6  C1' PAP A 125      39.215   2.515  22.204  1.00 29.59     0.241 C 
ENDROOT
BRANCH   1   7
HETATM    7  C5' PAP A 125      38.417   5.503  23.620  1.00 29.07     0.187 C 
BRANCH   7   8
HETATM    8  O5' PAP A 125      37.751   4.609  24.490  1.00 30.13    -0.268 OA
BRANCH   8   9
HETATM    9  PA  PAP A 125      36.125   4.547  24.538  1.00 31.22     0.419 P 
HETATM   10  O1A PAP A 125      35.659   4.401  23.127  1.00 32.37    -0.624 OA
HETATM   11  O2A PAP A 125      35.712   3.517  25.530  1.00 32.57    -0.624 OA
BRANCH   9  12
HETATM   12  O3A PAP A 125      35.645   6.142  24.963  1.00 29.92    -0.173 OA
BRANCH  12  13
HETATM   13  PB  PAP A 125      34.844   7.401  24.267  1.00 26.94     0.431 P 
HETATM   14  O1B PAP A 125      35.582   7.690  23.020  1.00 24.20    -0.616 OA
HETATM   15  O2B PAP A 125      33.457   6.861  24.063  1.00 26.86    -0.616 OA
HETATM   16  O3B PAP A 125      34.908   8.494  25.265  1.00 28.16    -0.616 OA
ENDBRANCH  12  13
ENDBRANCH   9  12
ENDBRANCH   8   9
ENDBRANCH   7   8
ENDBRANCH   1   7
BRANCH   3  17
HETATM   17  O3' PAP A 125      40.463   4.528  20.660  1.00 36.20    -0.261 OA
BRANCH  17  18
HETATM   18  P   PAP A 125      41.377   5.923  20.296  1.00 39.68     0.423 P 
HETATM   19  O1  PAP A 125      41.898   5.567  18.953  1.00 40.50    -0.617 OA
HETATM   20  O2  PAP A 125      40.351   6.996  20.313  1.00 39.38    -0.617 OA
HETATM   21  O3  PAP A 125      42.382   6.063  21.395  1.00 40.59    -0.617 OA
ENDBRANCH  17  18
ENDBRANCH   3  17
BRANCH   6  22
HETATM   22  N9  PAP A 125      38.623   1.242  22.675  1.00 29.22    -0.270 N 
HETATM   23  C4  PAP A 125      38.957  -0.107  22.383  1.00 29.28     0.170 A 
HETATM   24  N3  PAP A 125      39.931  -0.620  21.549  1.00 29.66    -0.205 NA
HETATM   25  C5  PAP A 125      38.062  -0.871  23.125  1.00 29.93     0.155 A 
HETATM   26  C2  PAP A 125      39.889  -1.973  21.540  1.00 28.29     0.202 A 
HETATM   27  N1  PAP A 125      39.091  -2.835  22.188  1.00 27.66    -0.202 NA
HETATM   28  C6  PAP A 125      38.146  -2.325  23.021  1.00 28.82     0.206 A 
HETATM   29  N6  PAP A 125      37.382  -3.149  23.764  1.00 26.39    -0.125 N 
HETATM   30  N7  PAP A 125      37.187  -0.009  23.861  1.00 30.19    -0.219 NA
HETATM   31  C8  PAP A 125      37.569   1.195  23.553  1.00 28.80     0.182 A 
ENDBRANCH   6  22
TORSDOF 8
ENDMDL
MODEL 6
REMARK VINA RESULT:    -5.458      3.909      7.290
REMARK INTER + INTRA:          -9.282
REMARK INTER:                  -7.505
REMARK INTRA:                  -1.777
REMARK UNBOUND:                -1.270
REMARK  8 active torsions:
REMARK  status: ('A' for Active; 'I' for Inactive)
REMARK    1  A    between atoms: P_1  and  O3'_9 
REMARK    2  A    between atoms: PA_2  and  O5'_5 
REMARK    3  A    between atoms: PA_2  and  O3A_23 
REMARK    4  A    between atoms: PB_3  and  O3A_23 
REMARK    5  A    between atoms: C5'_4  and  O5'_5 
REMARK    6  A    between atoms: C5'_4  and  C4'_6 
REMARK    7  A    between atoms: C3'_8  and  O3'_9 
REMARK    8  A    between atoms: C1'_12  and  N9_31 
ROOT
HETATM    1  C4' PAP A 125      36.845   3.087  24.943  1.00 30.66     0.178 C 
HETATM    2  O4' PAP A 125      38.143   2.793  25.469  1.00 30.64    -0.331 OA
HETATM    3  C3' PAP A 125      37.030   4.237  23.915  1.00 32.01     0.192 C 
HETATM    4  C2' PAP A 125      38.513   4.102  23.592  1.00 31.03     0.231 C 
HETATM    5  O2' PAP A 125      39.034   5.332  23.042  1.00 29.14    -0.216 OA
HETATM    6  C1' PAP A 125      38.980   3.856  25.041  1.00 29.59     0.241 C 
ENDROOT
BRANCH   1   7
HETATM    7  C5' PAP A 125      36.358   1.810  24.321  1.00 29.07     0.187 C 
BRANCH   7   8
HETATM    8  O5' PAP A 125      37.388   0.865  24.539  1.00 30.13    -0.268 OA
BRANCH   8   9
HETATM    9  PA  PAP A 125      37.930  -0.073  23.324  1.00 31.22     0.419 P 
HETATM   10  O1A PAP A 125      36.879  -1.104  23.076  1.00 32.37    -0.624 OA
HETATM   11  O2A PAP A 125      38.348   0.799  22.194  1.00 32.57    -0.624 OA
BRANCH   9  12
HETATM   12  O3A PAP A 125      39.225  -0.969  24.017  1.00 29.92    -0.173 OA
BRANCH  12  13
HETATM   13  PB  PAP A 125      40.697  -1.539  23.553  1.00 26.94     0.431 P 
HETATM   14  O1B PAP A 125      40.412  -2.739  22.740  1.00 24.20    -0.616 OA
HETATM   15  O2B PAP A 125      41.291  -0.390  22.788  1.00 26.86    -0.616 OA
HETATM   16  O3B PAP A 125      41.410  -1.832  24.819  1.00 28.16    -0.616 OA
ENDBRANCH  12  13
ENDBRANCH   9  12
ENDBRANCH   8   9
ENDBRANCH   7   8
ENDBRANCH   1   7
BRANCH   3  17
HETATM   17  O3' PAP A 125      36.740   5.511  24.558  1.00 36.20    -0.261 OA
BRANCH  17  18
HETATM   18  P   PAP A 125      35.603   6.592  23.884  1.00 39.68     0.423 P 
HETATM   19  O1  PAP A 125      36.504   7.528  23.167  1.00 40.50    -0.617 OA
HETATM   20  O2  PAP A 125      34.790   5.706  23.013  1.00 39.38    -0.617 OA
HETATM   21  O3  PAP A 125      34.824   7.150  25.032  1.00 40.59    -0.617 OA
ENDBRANCH  17  18
ENDBRANCH   3  17
BRANCH   6  22
HETATM   22  N9  PAP A 125      40.354   3.334  25.218  1.00 29.22    -0.270 N 
HETATM   23  C4  PAP A 125      41.606   4.003  25.277  1.00 29.28     0.170 A 
HETATM   24  N3  PAP A 125      41.900   5.347  25.162  1.00 29.66    -0.205 NA
HETATM   25  C5  PAP A 125      42.546   2.997  25.470  1.00 29.93     0.155 A 
HETATM   26  C2  PAP A 125      43.235   5.554  25.249  1.00 28.29     0.202 A 
HETATM   27  N1  PAP A 125      44.251   4.695  25.426  1.00 27.66    -0.202 NA
HETATM   28  C6  PAP A 125      43.953   3.375  25.557  1.00 28.82     0.206 A 
HETATM   29  N6  PAP A 125      44.927   2.485  25.827  1.00 26.39    -0.125 N 
HETATM   30  N7  PAP A 125      41.888   1.726  25.527  1.00 30.19    -0.219 NA
HETATM   31  C8  PAP A 125      40.626   1.998  25.375  1.00 28.80     0.182 A 
ENDBRANCH   6  22
TORSDOF 8
ENDMDL
MODEL 7
REMARK VINA RESULT:    -5.428      3.214      5.931
REMARK INTER + INTRA:          -9.237
REMARK INTER:                  -7.931
REMARK INTRA:                  -1.307
REMARK UNBOUND:                -1.270
REMARK  8 active torsions:
REMARK  status: ('A' for Active; 'I' for Inactive)
REMARK    1  A    between atoms: P_1  and  O3'_9 
REMARK    2  A    between atoms: PA_2  and  O5'_5 
REMARK    3  A    between atoms: PA_2  and  O3A_23 
REMARK    4  A    between atoms: PB_3  and  O3A_23 
REMARK    5  A    between atoms: C5'_4  and  O5'_5 
REMARK    6  A    between atoms: C5'_4  and  C4'_6 
REMARK    7  A    between atoms: C3'_8  and  O3'_9 
REMARK    8  A    between atoms: C1'_12  and  N9_31 
ROOT
HETATM    1  C4' PAP A 125      38.614   2.510  22.455  1.00 30.66     0.178 C 
HETATM    2  O4' PAP A 125      38.416   1.109  22.239  1.00 30.64    -0.331 OA
HETATM    3  C3' PAP A 125      38.157   2.806  23.910  1.00 32.01     0.192 C 
HETATM    4  C2' PAP A 125      38.243   1.416  24.530  1.00 31.03     0.231 C 
HETATM    5  O2' PAP A 125      37.426   1.330  25.718  1.00 29.14    -0.216 OA
HETATM    6  C1' PAP A 125      37.634   0.659  23.334  1.00 29.59     0.241 C 
ENDROOT
BRANCH   1   7
HETATM    7  C5' PAP A 125      40.079   2.753  22.234  1.00 29.07     0.187 C 
BRANCH   7   8
HETATM    8  O5' PAP A 125      40.478   1.807  21.261  1.00 30.13    -0.268 OA
BRANCH   8   9
HETATM    9  PA  PAP A 125      40.981   2.287  19.789  1.00 31.22     0.419 P 
HETATM   10  O1A PAP A 125      40.238   3.541  19.468  1.00 32.37    -0.624 OA
HETATM   11  O2A PAP A 125      42.469   2.322  19.778  1.00 32.57    -0.624 OA
BRANCH   9  12
HETATM   12  O3A PAP A 125      40.313   1.129  18.707  1.00 29.92    -0.173 OA
BRANCH  12  13
HETATM   13  PB  PAP A 125      40.478   0.700  17.127  1.00 26.94     0.431 P 
HETATM   14  O1B PAP A 125      40.165  -0.743  17.081  1.00 24.20    -0.616 OA
HETATM   15  O2B PAP A 125      39.484   1.579  16.422  1.00 26.86    -0.616 OA
HETATM   16  O3B PAP A 125      41.885   1.017  16.789  1.00 28.16    -0.616 OA
ENDBRANCH  12  13
ENDBRANCH   9  12
ENDBRANCH   8   9
ENDBRANCH   7   8
ENDBRANCH   1   7
BRANCH   3  17
HETATM   17  O3' PAP A 125      36.787   3.297  23.896  1.00 36.20    -0.261 OA
BRANCH  17  18
HETATM   18  P   PAP A 125      36.381   4.780  24.638  1.00 39.68     0.423 P 
HETATM   19  O1  PAP A 125      35.196   5.174  23.835  1.00 40.50    -0.617 OA
HETATM   20  O2  PAP A 125      36.091   4.374  26.036  1.00 39.38    -0.617 OA
HETATM   21  O3  PAP A 125      37.593   5.649  24.525  1.00 40.59    -0.617 OA
ENDBRANCH  17  18
ENDBRANCH   3  17
BRANCH   6  22
HETATM   22  N9  PAP A 125      37.799  -0.812  23.322  1.00 29.22    -0.270 N 
HETATM   23  C4  PAP A 125      38.944  -1.625  23.538  1.00 29.28     0.170 A 
HETATM   24  N3  PAP A 125      40.250  -1.265  23.802  1.00 29.66    -0.205 NA
HETATM   25  C5  PAP A 125      38.488  -2.933  23.413  1.00 29.93     0.155 A 
HETATM   26  C2  PAP A 125      41.036  -2.362  23.912  1.00 28.29     0.202 A 
HETATM   27  N1  PAP A 125      40.745  -3.668  23.813  1.00 27.66    -0.202 NA
HETATM   28  C6  PAP A 125      39.454  -4.017  23.570  1.00 28.82     0.206 A 
HETATM   29  N6  PAP A 125      39.095  -5.315  23.552  1.00 26.39    -0.125 N 
HETATM   30  N7  PAP A 125      37.086  -2.930  23.123  1.00 30.19    -0.219 NA
HETATM   31  C8  PAP A 125      36.756  -1.673  23.086  1.00 28.80     0.182 A 
ENDBRANCH   6  22
TORSDOF 8
ENDMDL
MODEL 8
REMARK VINA RESULT:    -5.424      1.455      6.014
REMARK INTER + INTRA:          -9.231
REMARK INTER:                  -7.749
REMARK INTRA:                  -1.483
REMARK UNBOUND:                -1.270
REMARK  8 active torsions:
REMARK  status: ('A' for Active; 'I' for Inactive)
REMARK    1  A    between atoms: P_1  and  O3'_9 
REMARK    2  A    between atoms: PA_2  and  O5'_5 
REMARK    3  A    between atoms: PA_2  and  O3A_23 
REMARK    4  A    between atoms: PB_3  and  O3A_23 
REMARK    5  A    between atoms: C5'_4  and  O5'_5 
REMARK    6  A    between atoms: C5'_4  and  C4'_6 
REMARK    7  A    between atoms: C3'_8  and  O3'_9 
REMARK    8  A    between atoms: C1'_12  and  N9_31 
ROOT
HETATM    1  C4' PAP A 125      39.334   3.779  23.728  1.00 30.66     0.178 C 
HETATM    2  O4' PAP A 125      39.619   2.425  23.360  1.00 30.64    -0.331 OA
HETATM    3  C3' PAP A 125      38.063   3.741  24.620  1.00 32.01     0.192 C 
HETATM    4  C2' PAP A 125      38.080   2.291  25.088  1.00 31.03     0.231 C 
HETATM    5  O2' PAP A 125      36.768   1.877  25.528  1.00 29.14    -0.216 OA
HETATM    6  C1' PAP A 125      38.470   1.678  23.728  1.00 29.59     0.241 C 
ENDROOT
BRANCH   1   7
HETATM    7  C5' PAP A 125      40.553   4.268  24.455  1.00 29.07     0.187 C 
BRANCH   7   8
HETATM    8  O5' PAP A 125      41.419   3.153  24.539  1.00 30.13    -0.268 OA
BRANCH   8   9
HETATM    9  PA  PAP A 125      42.324   2.897  25.868  1.00 31.22     0.419 P 
HETATM   10  O1A PAP A 125      42.469   4.217  26.550  1.00 32.37    -0.624 OA
HETATM   11  O2A PAP A 125      41.741   1.763  26.635  1.00 32.57    -0.624 OA
BRANCH   9  12
HETATM   12  O3A PAP A 125      43.900   2.577  25.260  1.00 29.92    -0.173 OA
BRANCH  12  13
HETATM   13  PB  PAP A 125      44.601   1.582  24.152  1.00 26.94     0.431 P 
HETATM   14  O1B PAP A 125      43.761   0.367  24.135  1.00 24.20    -0.616 OA
HETATM   15  O2B PAP A 125      44.563   2.388  22.886  1.00 26.86    -0.616 OA
HETATM   16  O3B PAP A 125      45.974   1.351  24.661  1.00 28.16    -0.616 OA
ENDBRANCH  12  13
ENDBRANCH   9  12
ENDBRANCH   8   9
ENDBRANCH   7   8
ENDBRANCH   1   7
BRANCH   3  17
HETATM   17  O3' PAP A 125      36.891   4.022  23.803  1.00 36.20    -0.261 OA
BRANCH  17  18
HETATM   18  P   PAP A 125      36.131   5.550  23.859  1.00 39.68     0.423 P 
HETATM   19  O1  PAP A 125      35.973   5.724  25.324  1.00 40.50    -0.617 OA
HETATM   20  O2  PAP A 125      37.138   6.436  23.222  1.00 39.38    -0.617 OA
HETATM   21  O3  PAP A 125      34.877   5.423  23.054  1.00 40.59    -0.617 OA
ENDBRANCH  17  18
ENDBRANCH   3  17
BRANCH   6  22
HETATM   22  N9  PAP A 125      38.935   0.273  23.740  1.00 29.22    -0.270 N 
HETATM   23  C4  PAP A 125      38.249  -0.939  23.461  1.00 29.28     0.170 A 
HETATM   24  N3  PAP A 125      36.929  -1.153  23.117  1.00 29.66    -0.205 NA
HETATM   25  C5  PAP A 125      39.202  -1.940  23.621  1.00 29.93     0.155 A 
HETATM   26  C2  PAP A 125      36.682  -2.476  22.967  1.00 28.29     0.202 A 
HETATM   27  N1  PAP A 125      37.486  -3.543  23.092  1.00 27.66    -0.202 NA
HETATM   28  C6  PAP A 125      38.788  -3.325  23.414  1.00 28.82     0.206 A 
HETATM   29  N6  PAP A 125      39.656  -4.354  23.461  1.00 26.39    -0.125 N 
HETATM   30  N7  PAP A 125      40.455  -1.357  23.994  1.00 30.19    -0.219 NA
HETATM   31  C8  PAP A 125      40.227  -0.078  24.043  1.00 28.80     0.182 A 
ENDBRANCH   6  22
TORSDOF 8
ENDMDL
MODEL 9
REMARK VINA RESULT:    -5.401      1.818      2.513
REMARK INTER + INTRA:          -9.198
REMARK INTER:                  -7.743
REMARK INTRA:                  -1.455
REMARK UNBOUND:                -1.270
REMARK  8 active torsions:
REMARK  status: ('A' for Active; 'I' for Inactive)
REMARK    1  A    between atoms: P_1  and  O3'_9 
REMARK    2  A    between atoms: PA_2  and  O5'_5 
REMARK    3  A    between atoms: PA_2  and  O3A_23 
REMARK    4  A    between atoms: PB_3  and  O3A_23 
REMARK    5  A    between atoms: C5'_4  and  O5'_5 
REMARK    6  A    between atoms: C5'_4  and  C4'_6 
REMARK    7  A    between atoms: C3'_8  and  O3'_9 
REMARK    8  A    between atoms: C1'_12  and  N9_31 
ROOT
HETATM    1  C4' PAP A 125      37.612   2.042  24.470  1.00 30.66     0.178 C 
HETATM    2  O4' PAP A 125      37.412   0.625  24.464  1.00 30.64    -0.331 OA
HETATM    3  C3' PAP A 125      38.718   2.341  23.421  1.00 32.01     0.192 C 
HETATM    4  C2' PAP A 125      38.644   1.089  22.557  1.00 31.03     0.231 C 
HETATM    5  O2' PAP A 125      39.871   0.901  21.817  1.00 29.14    -0.216 OA
HETATM    6  C1' PAP A 125      38.494   0.088  23.720  1.00 29.59     0.241 C 
ENDROOT
BRANCH   1   7
HETATM    7  C5' PAP A 125      36.282   2.643  24.116  1.00 29.07     0.187 C 
BRANCH   7   8
HETATM    8  O5' PAP A 125      36.576   3.755  23.294  1.00 30.13    -0.268 OA
BRANCH   8   9
HETATM    9  PA  PAP A 125      36.256   5.271  23.796  1.00 31.22     0.419 P 
HETATM   10  O1A PAP A 125      35.477   5.929  22.706  1.00 32.37    -0.624 OA
HETATM   11  O2A PAP A 125      35.659   5.210  25.157  1.00 32.57    -0.624 OA
BRANCH   9  12
HETATM   12  O3A PAP A 125      37.778   6.070  23.748  1.00 29.92    -0.173 OA
BRANCH  12  13
HETATM   13  PB  PAP A 125      38.355   7.604  23.902  1.00 26.94     0.431 P 
HETATM   14  O1B PAP A 125      37.253   8.374  24.515  1.00 24.20    -0.616 OA
HETATM   15  O2B PAP A 125      39.564   7.436  24.778  1.00 26.86    -0.616 OA
HETATM   16  O3B PAP A 125      38.684   8.030  22.522  1.00 28.16    -0.616 OA
ENDBRANCH  12  13
ENDBRANCH   9  12
ENDBRANCH   8   9
ENDBRANCH   7   8
ENDBRANCH   1   7
BRANCH   3  17
HETATM   17  O3' PAP A 125      40.005   2.448  24.093  1.00 36.20    -0.261 OA
BRANCH  17  18
HETATM   18  P   PAP A 125      41.031   3.783  23.811  1.00 39.68     0.423 P 
HETATM   19  O1  PAP A 125      41.002   4.439  25.142  1.00 40.50    -0.617 OA
HETATM   20  O2  PAP A 125      42.318   3.133  23.455  1.00 39.38    -0.617 OA
HETATM   21  O3  PAP A 125      40.428   4.540  22.671  1.00 40.59    -0.617 OA
ENDBRANCH  17  18
ENDBRANCH   3  17
BRANCH   6  22
HETATM   22  N9  PAP A 125      38.054  -1.281  23.368  1.00 29.22    -0.270 N 
HETATM   23  C4  PAP A 125      38.776  -2.501  23.286  1.00 29.28     0.170 A 
HETATM   24  N3  PAP A 125      40.118  -2.754  23.493  1.00 29.66    -0.205 NA
HETATM   25  C5  PAP A 125      37.834  -3.456  22.923  1.00 29.93     0.155 A 
HETATM   26  C2  PAP A 125      40.397  -4.062  23.280  1.00 28.29     0.202 A 
HETATM   27  N1  PAP A 125      39.606  -5.086  22.925  1.00 27.66    -0.202 NA
HETATM   28  C6  PAP A 125      38.283  -4.834  22.741  1.00 28.82     0.206 A 
HETATM   29  N6  PAP A 125      37.432  -5.844  22.473  1.00 26.39    -0.125 N 
HETATM   30  N7  PAP A 125      36.550  -2.838  22.780  1.00 30.19    -0.219 NA
HETATM   31  C8  PAP A 125      36.753  -1.583  23.053  1.00 28.80     0.182 A 
ENDBRANCH   6  22
TORSDOF 8
ENDMDL
