MODEL 1
REMARK VINA RESULT:    -5.283      0.000      0.000
REMARK INTER + INTRA:          -8.849
REMARK INTER:                  -7.754
REMARK INTRA:                  -1.095
REMARK UNBOUND:                -1.095
REMARK  8 active torsions:
REMARK  status: ('A' for Active; 'I' for Inactive)
REMARK    1  A    between atoms: P_1  and  O3'_9 
REMARK    2  A    between atoms: PA_2  and  O5'_5 
REMARK    3  A    between atoms: PA_2  and  O3A_23 
REMARK    4  A    between atoms: PB_3  and  O3A_23 
REMARK    5  A    between atoms: C5'_4  and  O5'_5 
REMARK    6  A    between atoms: C5'_4  and  C4'_6 
REMARK    7  A    between atoms: C3'_8  and  O3'_9 
REMARK    8  A    between atoms: C1'_12  and  N9_31 
ROOT
HETATM    1  C4' PAP A 125      43.412  -6.226  41.650  1.00 30.66     0.178 C 
HETATM    2  O4' PAP A 125      42.732  -4.970  41.755  1.00 30.64    -0.331 OA
HETATM    3  C3' PAP A 125      44.605  -6.173  42.643  1.00 32.01     0.192 C 
HETATM    4  C2' PAP A 125      44.145  -5.071  43.590  1.00 31.03     0.231 C 
HETATM    5  O2' PAP A 125      45.266  -4.504  44.303  1.00 29.14    -0.216 OA
HETATM    6  C1' PAP A 125      43.598  -4.128  42.500  1.00 29.59     0.241 C 
ENDROOT
BRANCH   1   7
HETATM    7  C5' PAP A 125      42.393  -7.270  42.003  1.00 29.07     0.187 C 
BRANCH   7   8
HETATM    8  O5' PAP A 125      41.232  -6.934  41.269  1.00 30.13    -0.268 OA
BRANCH   8   9
HETATM    9  PA  PAP A 125      40.484  -8.039  40.337  1.00 31.22     0.419 P 
HETATM   10  O1A PAP A 125      40.641  -7.586  38.923  1.00 32.37    -0.624 OA
HETATM   11  O2A PAP A 125      40.980  -9.393  40.707  1.00 32.57    -0.624 OA
BRANCH   9  12
HETATM   12  O3A PAP A 125      38.810  -7.810  40.655  1.00 29.92    -0.173 OA
BRANCH  12  13
HETATM   13  PB  PAP A 125      37.746  -8.126  41.871  1.00 26.94     0.431 P 
HETATM   14  O1B PAP A 125      38.571  -8.234  43.091  1.00 24.20    -0.616 OA
HETATM   15  O2B PAP A 125      36.823  -6.941  41.842  1.00 26.86    -0.616 OA
HETATM   16  O3B PAP A 125      37.087  -9.394  41.481  1.00 28.16    -0.616 OA
ENDBRANCH  12  13
ENDBRANCH   9  12
ENDBRANCH   8   9
ENDBRANCH   7   8
ENDBRANCH   1   7
BRANCH   3  17
HETATM   17  O3' PAP A 125      45.813  -5.788  41.927  1.00 36.20    -0.261 OA
BRANCH  17  18
HETATM   18  P   PAP A 125      46.563  -6.865  40.835  1.00 39.68     0.423 P 
HETATM   19  O1  PAP A 125      45.953  -6.428  39.555  1.00 40.50    -0.617 OA
HETATM   20  O2  PAP A 125      48.002  -6.537  40.994  1.00 39.38    -0.617 OA
HETATM   21  O3  PAP A 125      46.226  -8.243  41.309  1.00 40.59    -0.617 OA
ENDBRANCH  17  18
ENDBRANCH   3  17
BRANCH   6  22
HETATM   22  N9  PAP A 125      42.728  -3.018  42.954  1.00 29.22    -0.270 N 
HETATM   23  C4  PAP A 125      41.935  -2.095  42.222  1.00 29.28     0.170 A 
HETATM   24  N3  PAP A 125      41.765  -1.957  40.859  1.00 29.66    -0.205 NA
HETATM   25  C5  PAP A 125      41.330  -1.294  43.184  1.00 29.93     0.155 A 
HETATM   26  C2  PAP A 125      40.936  -0.922  40.582  1.00 28.29     0.202 A 
HETATM   27  N1  PAP A 125      40.292  -0.068  41.392  1.00 27.66    -0.202 NA
HETATM   28  C6  PAP A 125      40.449  -0.221  42.733  1.00 28.82     0.206 A 
HETATM   29  N6  PAP A 125      39.753   0.552  43.589  1.00 26.39    -0.125 N 
HETATM   30  N7  PAP A 125      41.744  -1.713  44.490  1.00 30.19    -0.219 NA
HETATM   31  C8  PAP A 125      42.550  -2.711  44.279  1.00 28.80     0.182 A 
ENDBRANCH   6  22
TORSDOF 8
ENDMDL
MODEL 2
REMARK VINA RESULT:    -5.152      2.272      3.898
REMARK INTER + INTRA:          -8.657
REMARK INTER:                  -7.732
REMARK INTRA:                  -0.925
REMARK UNBOUND:                -1.095
REMARK  8 active torsions:
REMARK  status: ('A' for Active; 'I' for Inactive)
REMARK    1  A    between atoms: P_1  and  O3'_9 
REMARK    2  A    between atoms: PA_2  and  O5'_5 
REMARK    3  A    between atoms: PA_2  and  O3A_23 
REMARK    4  A    between atoms: PB_3  and  O3A_23 
REMARK    5  A    between atoms: C5'_4  and  O5'_5 
REMARK    6  A    between atoms: C5'_4  and  C4'_6 
REMARK    7  A    between atoms: C3'_8  and  O3'_9 
REMARK    8  A    between atoms: C1'_12  and  N9_31 
ROOT
HETATM    1  C4' PAP A 125      43.914  -5.337  42.633  1.00 30.66     0.178 C 
HETATM    2  O4' PAP A 125      43.221  -4.092  42.507  1.00 30.64    -0.331 OA
HETATM    3  C3' PAP A 125      44.309  -5.480  44.128  1.00 32.01     0.192 C 
HETATM    4  C2' PAP A 125      43.318  -4.524  44.782  1.00 31.03     0.231 C 
HETATM    5  O2' PAP A 125      43.783  -4.113  46.087  1.00 29.14    -0.216 OA
HETATM    6  C1' PAP A 125      43.441  -3.405  43.729  1.00 29.59     0.241 C 
ENDROOT
BRANCH   1   7
HETATM    7  C5' PAP A 125      42.948  -6.390  42.173  1.00 29.07     0.187 C 
BRANCH   7   8
HETATM    8  O5' PAP A 125      42.701  -6.110  40.809  1.00 30.13    -0.268 OA
BRANCH   8   9
HETATM    9  PA  PAP A 125      42.596  -7.312  39.716  1.00 31.22     0.419 P 
HETATM   10  O1A PAP A 125      42.193  -8.539  40.464  1.00 32.37    -0.624 OA
HETATM   11  O2A PAP A 125      41.742  -6.858  38.585  1.00 32.57    -0.624 OA
BRANCH   9  12
HETATM   12  O3A PAP A 125      44.225  -7.626  39.263  1.00 29.92    -0.173 OA
BRANCH  12  13
HETATM   13  PB  PAP A 125      45.646  -8.001  40.005  1.00 26.94     0.431 P 
HETATM   14  O1B PAP A 125      46.387  -8.827  39.031  1.00 24.20    -0.616 OA
HETATM   15  O2B PAP A 125      46.259  -6.658  40.282  1.00 26.86    -0.616 OA
HETATM   16  O3B PAP A 125      45.255  -8.732  41.233  1.00 28.16    -0.616 OA
ENDBRANCH  12  13
ENDBRANCH   9  12
ENDBRANCH   8   9
ENDBRANCH   7   8
ENDBRANCH   1   7
BRANCH   3  17
HETATM   17  O3' PAP A 125      45.681  -5.029  44.312  1.00 36.20    -0.261 OA
BRANCH  17  18
HETATM   18  P   PAP A 125      46.883  -6.096  44.887  1.00 39.68     0.423 P 
HETATM   19  O1  PAP A 125      46.860  -7.133  43.825  1.00 40.50    -0.617 OA
HETATM   20  O2  PAP A 125      48.095  -5.239  44.906  1.00 39.38    -0.617 OA
HETATM   21  O3  PAP A 125      46.448  -6.518  46.254  1.00 40.59    -0.617 OA
ENDBRANCH  17  18
ENDBRANCH   3  17
BRANCH   6  22
HETATM   22  N9  PAP A 125      42.401  -2.352  43.750  1.00 29.22    -0.270 N 
HETATM   23  C4  PAP A 125      41.711  -1.700  42.694  1.00 29.28     0.170 A 
HETATM   24  N3  PAP A 125      41.834  -1.852  41.327  1.00 29.66    -0.205 NA
HETATM   25  C5  PAP A 125      40.844  -0.813  43.321  1.00 29.93     0.155 A 
HETATM   26  C2  PAP A 125      41.000  -1.007  40.675  1.00 28.29     0.202 A 
HETATM   27  N1  PAP A 125      40.122  -0.103  41.136  1.00 27.66    -0.202 NA
HETATM   28  C6  PAP A 125      39.994   0.029  42.483  1.00 28.82     0.206 A 
HETATM   29  N6  PAP A 125      39.062   0.856  42.996  1.00 26.39    -0.125 N 
HETATM   30  N7  PAP A 125      40.995  -0.912  44.741  1.00 30.19    -0.219 NA
HETATM   31  C8  PAP A 125      41.910  -1.819  44.916  1.00 28.80     0.182 A 
ENDBRANCH   6  22
TORSDOF 8
ENDMDL
MODEL 3
REMARK VINA RESULT:    -5.151     10.919     13.262
REMARK INTER + INTRA:          -8.655
REMARK INTER:                  -7.288
REMARK INTRA:                  -1.366
REMARK UNBOUND:                -1.095
REMARK  8 active torsions:
REMARK  status: ('A' for Active; 'I' for Inactive)
REMARK    1  A    between atoms: P_1  and  O3'_9 
REMARK    2  A    between atoms: PA_2  and  O5'_5 
REMARK    3  A    between atoms: PA_2  and  O3A_23 
REMARK    4  A    between atoms: PB_3  and  O3A_23 
REMARK    5  A    between atoms: C5'_4  and  O5'_5 
REMARK    6  A    between atoms: C5'_4  and  C4'_6 
REMARK    7  A    between atoms: C3'_8  and  O3'_9 
REMARK    8  A    between atoms: C1'_12  and  N9_31 
ROOT
HETATM    1  C4' PAP A 125      41.837 -10.576  32.188  1.00 30.66     0.178 C 
HETATM    2  O4' PAP A 125      42.128  -9.285  31.641  1.00 30.64    -0.331 OA
HETATM    3  C3' PAP A 125      41.290 -11.442  31.020  1.00 32.01     0.192 C 
HETATM    4  C2' PAP A 125      41.835 -10.684  29.816  1.00 31.03     0.231 C 
HETATM    5  O2' PAP A 125      41.081 -10.999  28.624  1.00 29.14    -0.216 OA
HETATM    6  C1' PAP A 125      41.532  -9.271  30.354  1.00 29.59     0.241 C 
ENDROOT
BRANCH   1   7
HETATM    7  C5' PAP A 125      43.135 -11.085  32.744  1.00 29.07     0.187 C 
BRANCH   7   8
HETATM    8  O5' PAP A 125      44.119 -10.162  32.317  1.00 30.13    -0.268 OA
BRANCH   8   9
HETATM    9  PA  PAP A 125      45.494 -10.675  31.613  1.00 31.22     0.419 P 
HETATM   10  O1A PAP A 125      45.366 -12.153  31.446  1.00 32.37    -0.624 OA
HETATM   11  O2A PAP A 125      45.754  -9.845  30.406  1.00 32.57    -0.624 OA
BRANCH   9  12
HETATM   12  O3A PAP A 125      46.693 -10.506  32.835  1.00 29.92    -0.173 OA
BRANCH  12  13
HETATM   13  PB  PAP A 125      46.994 -11.103  34.339  1.00 26.94     0.431 P 
HETATM   14  O1B PAP A 125      48.244 -11.877  34.207  1.00 24.20    -0.616 OA
HETATM   15  O2B PAP A 125      47.108  -9.868  35.187  1.00 26.86    -0.616 OA
HETATM   16  O3B PAP A 125      45.810 -11.932  34.665  1.00 28.16    -0.616 OA
ENDBRANCH  12  13
ENDBRANCH   9  12
ENDBRANCH   8   9
ENDBRANCH   7   8
ENDBRANCH   1   7
BRANCH   3  17
HETATM   17  O3' PAP A 125      39.834 -11.424  31.045  1.00 36.20    -0.261 OA
BRANCH  17  18
HETATM   18  P   PAP A 125      38.943 -12.873  31.187  1.00 39.68     0.423 P 
HETATM   19  O1  PAP A 125      38.998 -13.367  29.788  1.00 40.50    -0.617 OA
HETATM   20  O2  PAP A 125      39.745 -13.652  32.163  1.00 39.38    -0.617 OA
HETATM   21  O3  PAP A 125      37.599 -12.487  31.715  1.00 40.59    -0.617 OA
ENDBRANCH  17  18
ENDBRANCH   3  17
BRANCH   6  22
HETATM   22  N9  PAP A 125      42.186  -8.139  29.659  1.00 29.22    -0.270 N 
HETATM   23  C4  PAP A 125      41.941  -6.741  29.717  1.00 29.28     0.170 A 
HETATM   24  N3  PAP A 125      40.994  -6.036  30.432  1.00 29.66    -0.205 NA
HETATM   25  C5  PAP A 125      42.876  -6.174  28.858  1.00 29.93     0.155 A 
HETATM   26  C2  PAP A 125      41.090  -4.709  30.174  1.00 28.29     0.202 A 
HETATM   27  N1  PAP A 125      41.924  -4.024  29.377  1.00 27.66    -0.202 NA
HETATM   28  C6  PAP A 125      42.865  -4.723  28.690  1.00 28.82     0.206 A 
HETATM   29  N6  PAP A 125      43.783  -4.074  27.948  1.00 26.39    -0.125 N 
HETATM   30  N7  PAP A 125      43.684  -7.202  28.277  1.00 30.19    -0.219 NA
HETATM   31  C8  PAP A 125      43.230  -8.310  28.785  1.00 28.80     0.182 A 
ENDBRANCH   6  22
TORSDOF 8
ENDMDL
MODEL 4
REMARK VINA RESULT:    -5.144     11.562     13.360
REMARK INTER + INTRA:          -8.645
REMARK INTER:                  -7.134
REMARK INTRA:                  -1.511
REMARK UNBOUND:                -1.095
REMARK  8 active torsions:
REMARK  status: ('A' for Active; 'I' for Inactive)
REMARK    1  A    between atoms: P_1  and  O3'_9 
REMARK    2  A    between atoms: PA_2  and  O5'_5 
REMARK    3  A    between atoms: PA_2  and  O3A_23 
REMARK    4  A    between atoms: PB_3  and  O3A_23 
REMARK    5  A    between atoms: C5'_4  and  O5'_5 
REMARK    6  A    between atoms: C5'_4  and  C4'_6 
REMARK    7  A    between atoms: C3'_8  and  O3'_9 
REMARK    8  A    between atoms: C1'_12  and  N9_31 
ROOT
HETATM    1  C4' PAP A 125      40.681 -10.278  30.838  1.00 30.66     0.178 C 
HETATM    2  O4' PAP A 125      40.681  -8.889  30.493  1.00 30.64    -0.331 OA
HETATM    3  C3' PAP A 125      42.007 -10.874  30.292  1.00 32.01     0.192 C 
HETATM    4  C2' PAP A 125      42.855  -9.615  30.154  1.00 31.03     0.231 C 
HETATM    5  O2' PAP A 125      43.945  -9.827  29.228  1.00 29.14    -0.216 OA
HETATM    6  C1' PAP A 125      41.743  -8.724  29.567  1.00 29.59     0.241 C 
ENDROOT
BRANCH   1   7
HETATM    7  C5' PAP A 125      40.583 -10.326  32.335  1.00 29.07     0.187 C 
BRANCH   7   8
HETATM    8  O5' PAP A 125      40.597 -11.699  32.673  1.00 30.13    -0.268 OA
BRANCH   8   9
HETATM    9  PA  PAP A 125      39.209 -12.502  32.958  1.00 31.22     0.419 P 
HETATM   10  O1A PAP A 125      39.292 -13.021  34.355  1.00 32.37    -0.624 OA
HETATM   11  O2A PAP A 125      38.064 -11.624  32.594  1.00 32.57    -0.624 OA
BRANCH   9  12
HETATM   12  O3A PAP A 125      39.324 -13.918  31.989  1.00 29.92    -0.173 OA
BRANCH  12  13
HETATM   13  PB  PAP A 125      38.314 -15.074  31.395  1.00 26.94     0.431 P 
HETATM   14  O1B PAP A 125      39.167 -15.941  30.557  1.00 24.20    -0.616 OA
HETATM   15  O2B PAP A 125      37.774 -15.733  32.632  1.00 26.86    -0.616 OA
HETATM   16  O3B PAP A 125      37.287 -14.328  30.631  1.00 28.16    -0.616 OA
ENDBRANCH  12  13
ENDBRANCH   9  12
ENDBRANCH   8   9
ENDBRANCH   7   8
ENDBRANCH   1   7
BRANCH   3  17
HETATM   17  O3' PAP A 125      41.761 -11.493  28.997  1.00 36.20    -0.261 OA
BRANCH  17  18
HETATM   18  P   PAP A 125      41.467 -13.170  28.871  1.00 39.68     0.423 P 
HETATM   19  O1  PAP A 125      41.979 -13.638  30.182  1.00 40.50    -0.617 OA
HETATM   20  O2  PAP A 125      39.992 -13.228  28.712  1.00 39.38    -0.617 OA
HETATM   21  O3  PAP A 125      42.201 -13.633  27.653  1.00 40.59    -0.617 OA
ENDBRANCH  17  18
ENDBRANCH   3  17
BRANCH   6  22
HETATM   22  N9  PAP A 125      41.995  -7.265  29.554  1.00 29.22    -0.270 N 
HETATM   23  C4  PAP A 125      42.881  -6.478  28.772  1.00 29.28     0.170 A 
HETATM   24  N3  PAP A 125      43.785  -6.860  27.801  1.00 29.66    -0.205 NA
HETATM   25  C5  PAP A 125      42.671  -5.169  29.193  1.00 29.93     0.155 A 
HETATM   26  C2  PAP A 125      44.454  -5.785  27.321  1.00 28.29     0.202 A 
HETATM   27  N1  PAP A 125      44.367  -4.482  27.629  1.00 27.66    -0.202 NA
HETATM   28  C6  PAP A 125      43.462  -4.110  28.572  1.00 28.82     0.206 A 
HETATM   29  N6  PAP A 125      43.271  -2.806  28.851  1.00 26.39    -0.125 N 
HETATM   30  N7  PAP A 125      41.674  -5.147  30.221  1.00 30.19    -0.219 NA
HETATM   31  C8  PAP A 125      41.329  -6.391  30.377  1.00 28.80     0.182 A 
ENDBRANCH   6  22
TORSDOF 8
ENDMDL
MODEL 5
REMARK VINA RESULT:    -5.142     11.295     13.348
REMARK INTER + INTRA:          -8.642
REMARK INTER:                  -7.337
REMARK INTRA:                  -1.306
REMARK UNBOUND:                -1.095
REMARK  8 active torsions:
REMARK  status: ('A' for Active; 'I' for Inactive)
REMARK    1  A    between atoms: P_1  and  O3'_9 
REMARK    2  A    between atoms: PA_2  and  O5'_5 
REMARK    3  A    between atoms: PA_2  and  O3A_23 
REMARK    4  A    between atoms: PB_3  and  O3A_23 
REMARK    5  A    between atoms: C5'_4  and  O5'_5 
REMARK    6  A    between atoms: C5'_4  and  C4'_6 
REMARK    7  A    between atoms: C3'_8  and  O3'_9 
REMARK    8  A    between atoms: C1'_12  and  N9_31 
ROOT
HETATM    1  C4' PAP A 125      41.152 -10.444  30.655  1.00 30.66     0.178 C 
HETATM    2  O4' PAP A 125      42.511 -10.622  31.067  1.00 30.64    -0.331 OA
HETATM    3  C3' PAP A 125      40.262 -10.925  31.834  1.00 32.01     0.192 C 
HETATM    4  C2' PAP A 125      41.243 -10.831  32.996  1.00 31.03     0.231 C 
HETATM    5  O2' PAP A 125      40.819 -11.665  34.097  1.00 29.14    -0.216 OA
HETATM    6  C1' PAP A 125      42.455 -11.415  32.242  1.00 29.59     0.241 C 
ENDROOT
BRANCH   1   7
HETATM    7  C5' PAP A 125      41.003  -8.980  30.362  1.00 29.07     0.187 C 
BRANCH   7   8
HETATM    8  O5' PAP A 125      42.275  -8.551  29.914  1.00 30.13    -0.268 OA
BRANCH   8   9
HETATM    9  PA  PAP A 125      42.429  -7.687  28.543  1.00 31.22     0.419 P 
HETATM   10  O1A PAP A 125      43.709  -8.116  27.906  1.00 32.37    -0.624 OA
HETATM   11  O2A PAP A 125      41.171  -7.805  27.757  1.00 32.57    -0.624 OA
BRANCH   9  12
HETATM   12  O3A PAP A 125      42.757  -6.086  29.078  1.00 29.92    -0.173 OA
BRANCH  12  13
HETATM   13  PB  PAP A 125      41.928  -4.828  29.740  1.00 26.94     0.431 P 
HETATM   14  O1B PAP A 125      42.960  -3.941  30.316  1.00 24.20    -0.616 OA
HETATM   15  O2B PAP A 125      41.184  -4.247  28.572  1.00 26.86    -0.616 OA
HETATM   16  O3B PAP A 125      41.040  -5.446  30.753  1.00 28.16    -0.616 OA
ENDBRANCH  12  13
ENDBRANCH   9  12
ENDBRANCH   8   9
ENDBRANCH   7   8
ENDBRANCH   1   7
BRANCH   3  17
HETATM   17  O3' PAP A 125      39.849 -12.302  31.598  1.00 36.20    -0.261 OA
BRANCH  17  18
HETATM   18  P   PAP A 125      38.294 -12.840  32.055  1.00 39.68     0.423 P 
HETATM   19  O1  PAP A 125      38.647 -13.964  32.958  1.00 40.50    -0.617 OA
HETATM   20  O2  PAP A 125      37.723 -11.645  32.727  1.00 39.38    -0.617 OA
HETATM   21  O3  PAP A 125      37.583 -13.189  30.787  1.00 40.59    -0.617 OA
ENDBRANCH  17  18
ENDBRANCH   3  17
BRANCH   6  22
HETATM   22  N9  PAP A 125      43.782 -11.231  32.872  1.00 29.22    -0.270 N 
HETATM   23  C4  PAP A 125      44.429 -11.949  33.913  1.00 29.28     0.170 A 
HETATM   24  N3  PAP A 125      43.985 -13.024  34.657  1.00 29.66    -0.205 NA
HETATM   25  C5  PAP A 125      45.663 -11.328  34.069  1.00 29.93     0.155 A 
HETATM   26  C2  PAP A 125      44.914 -13.386  35.574  1.00 28.29     0.202 A 
HETATM   27  N1  PAP A 125      46.129 -12.886  35.844  1.00 27.66    -0.202 NA
HETATM   28  C6  PAP A 125      46.567 -11.840  35.095  1.00 28.82     0.206 A 
HETATM   29  N6  PAP A 125      47.815 -11.361  35.265  1.00 26.39    -0.125 N 
HETATM   30  N7  PAP A 125      45.778 -10.243  33.142  1.00 30.19    -0.219 NA
HETATM   31  C8  PAP A 125      44.656 -10.246  32.485  1.00 28.80     0.182 A 
ENDBRANCH   6  22
TORSDOF 8
ENDMDL
MODEL 6
REMARK VINA RESULT:    -5.121      5.876      8.473
REMARK INTER + INTRA:          -8.611
REMARK INTER:                  -7.348
REMARK INTRA:                  -1.263
REMARK UNBOUND:                -1.095
REMARK  8 active torsions:
REMARK  status: ('A' for Active; 'I' for Inactive)
REMARK    1  A    between atoms: P_1  and  O3'_9 
REMARK    2  A    between atoms: PA_2  and  O5'_5 
REMARK    3  A    between atoms: PA_2  and  O3A_23 
REMARK    4  A    between atoms: PB_3  and  O3A_23 
REMARK    5  A    between atoms: C5'_4  and  O5'_5 
REMARK    6  A    between atoms: C5'_4  and  C4'_6 
REMARK    7  A    between atoms: C3'_8  and  O3'_9 
REMARK    8  A    between atoms: C1'_12  and  N9_31 
ROOT
HETATM    1  C4' PAP A 125      37.799   0.711  45.104  1.00 30.66     0.178 C 
HETATM    2  O4' PAP A 125      38.687  -0.265  44.548  1.00 30.64    -0.331 OA
HETATM    3  C3' PAP A 125      38.382   2.104  44.741  1.00 32.01     0.192 C 
HETATM    4  C2' PAP A 125      39.270   1.747  43.555  1.00 31.03     0.231 C 
HETATM    5  O2' PAP A 125      40.278   2.760  43.343  1.00 29.14    -0.216 OA
HETATM    6  C1' PAP A 125      39.848   0.452  44.159  1.00 29.59     0.241 C 
ENDROOT
BRANCH   1   7
HETATM    7  C5' PAP A 125      36.461   0.448  44.476  1.00 29.07     0.187 C 
BRANCH   7   8
HETATM    8  O5' PAP A 125      36.524  -0.878  43.987  1.00 30.13    -0.268 OA
BRANCH   8   9
HETATM    9  PA  PAP A 125      35.752  -2.088  44.756  1.00 31.22     0.419 P 
HETATM   10  O1A PAP A 125      36.691  -2.606  45.794  1.00 32.37    -0.624 OA
HETATM   11  O2A PAP A 125      34.413  -1.603  45.190  1.00 32.57    -0.624 OA
BRANCH   9  12
HETATM   12  O3A PAP A 125      35.681  -3.358  43.599  1.00 29.92    -0.173 OA
BRANCH  12  13
HETATM   13  PB  PAP A 125      34.821  -4.740  43.357  1.00 26.94     0.431 P 
HETATM   14  O1B PAP A 125      34.708  -5.366  44.691  1.00 24.20    -0.616 OA
HETATM   15  O2B PAP A 125      33.523  -4.247  42.784  1.00 26.86    -0.616 OA
HETATM   16  O3B PAP A 125      35.626  -5.528  42.395  1.00 28.16    -0.616 OA
ENDBRANCH  12  13
ENDBRANCH   9  12
ENDBRANCH   8   9
ENDBRANCH   7   8
ENDBRANCH   1   7
BRANCH   3  17
HETATM   17  O3' PAP A 125      39.167   2.605  45.861  1.00 36.20    -0.261 OA
BRANCH  17  18
HETATM   18  P   PAP A 125      38.805   4.111  46.579  1.00 39.68     0.423 P 
HETATM   19  O1  PAP A 125      39.066   5.028  45.442  1.00 40.50    -0.617 OA
HETATM   20  O2  PAP A 125      37.376   3.956  46.951  1.00 39.38    -0.617 OA
HETATM   21  O3  PAP A 125      39.704   4.234  47.767  1.00 40.59    -0.617 OA
ENDBRANCH  17  18
ENDBRANCH   3  17
BRANCH   6  22
HETATM   22  N9  PAP A 125      40.548  -0.462  43.229  1.00 29.22    -0.270 N 
HETATM   23  C4  PAP A 125      41.450  -1.532  43.474  1.00 29.28     0.170 A 
HETATM   24  N3  PAP A 125      41.951  -2.014  44.667  1.00 29.66    -0.205 NA
HETATM   25  C5  PAP A 125      41.770  -2.032  42.216  1.00 29.93     0.155 A 
HETATM   26  C2  PAP A 125      42.812  -3.037  44.446  1.00 28.29     0.202 A 
HETATM   27  N1  PAP A 125      43.218  -3.616  43.306  1.00 27.66    -0.202 NA
HETATM   28  C6  PAP A 125      42.707  -3.149  42.136  1.00 28.82     0.206 A 
HETATM   29  N6  PAP A 125      43.013  -3.756  40.973  1.00 26.39    -0.125 N 
HETATM   30  N7  PAP A 125      41.080  -1.282  41.210  1.00 30.19    -0.219 NA
HETATM   31  C8  PAP A 125      40.395  -0.394  41.867  1.00 28.80     0.182 A 
ENDBRANCH   6  22
TORSDOF 8
ENDMDL
MODEL 7
REMARK VINA RESULT:    -5.052     11.080     13.638
REMARK INTER + INTRA:          -8.510
REMARK INTER:                  -7.198
REMARK INTRA:                  -1.312
REMARK UNBOUND:                -1.095
REMARK  8 active torsions:
REMARK  status: ('A' for Active; 'I' for Inactive)
REMARK    1  A    between atoms: P_1  and  O3'_9 
REMARK    2  A    between atoms: PA_2  and  O5'_5 
REMARK    3  A    between atoms: PA_2  and  O3A_23 
REMARK    4  A    between atoms: PB_3  and  O3A_23 
REMARK    5  A    between atoms: C5'_4  and  O5'_5 
REMARK    6  A    between atoms: C5'_4  and  C4'_6 
REMARK    7  A    between atoms: C3'_8  and  O3'_9 
REMARK    8  A    between atoms: C1'_12  and  N9_31 
ROOT
HETATM    1  C4' PAP A 125      41.897 -10.403  32.390  1.00 30.66     0.178 C 
HETATM    2  O4' PAP A 125      42.228  -9.151  31.782  1.00 30.64    -0.331 OA
HETATM    3  C3' PAP A 125      41.165 -11.245  31.309  1.00 32.01     0.192 C 
HETATM    4  C2' PAP A 125      41.637 -10.555  30.035  1.00 31.03     0.231 C 
HETATM    5  O2' PAP A 125      40.740 -10.831  28.937  1.00 29.14    -0.216 OA
HETATM    6  C1' PAP A 125      41.503  -9.113  30.563  1.00 29.59     0.241 C 
ENDROOT
BRANCH   1   7
HETATM    7  C5' PAP A 125      43.204 -11.004  32.823  1.00 29.07     0.187 C 
BRANCH   7   8
HETATM    8  O5' PAP A 125      44.175 -10.476  31.941  1.00 30.13    -0.268 OA
BRANCH   8   9
HETATM    9  PA  PAP A 125      45.750 -10.848  32.114  1.00 31.22     0.419 P 
HETATM   10  O1A PAP A 125      46.190 -10.261  33.414  1.00 32.37    -0.624 OA
HETATM   11  O2A PAP A 125      45.923 -12.311  31.903  1.00 32.57    -0.624 OA
BRANCH   9  12
HETATM   12  O3A PAP A 125      46.553  -9.884  30.939  1.00 29.92    -0.173 OA
BRANCH  12  13
HETATM   13  PB  PAP A 125      46.872  -9.944  29.325  1.00 26.94     0.431 P 
HETATM   14  O1B PAP A 125      45.766 -10.727  28.739  1.00 24.20    -0.616 OA
HETATM   15  O2B PAP A 125      46.898  -8.497  28.922  1.00 26.86    -0.616 OA
HETATM   16  O3B PAP A 125      48.193 -10.606  29.220  1.00 28.16    -0.616 OA
ENDBRANCH  12  13
ENDBRANCH   9  12
ENDBRANCH   8   9
ENDBRANCH   7   8
ENDBRANCH   1   7
BRANCH   3  17
HETATM   17  O3' PAP A 125      39.726 -11.110  31.485  1.00 36.20    -0.261 OA
BRANCH  17  18
HETATM   18  P   PAP A 125      38.762 -12.461  31.886  1.00 39.68     0.423 P 
HETATM   19  O1  PAP A 125      39.744 -13.286  32.634  1.00 40.50    -0.617 OA
HETATM   20  O2  PAP A 125      37.686 -11.857  32.711  1.00 39.38    -0.617 OA
HETATM   21  O3  PAP A 125      38.260 -13.016  30.592  1.00 40.59    -0.617 OA
ENDBRANCH  17  18
ENDBRANCH   3  17
BRANCH   6  22
HETATM   22  N9  PAP A 125      42.166  -8.050  29.774  1.00 29.22    -0.270 N 
HETATM   23  C4  PAP A 125      41.971  -6.643  29.755  1.00 29.28     0.170 A 
HETATM   24  N3  PAP A 125      41.079  -5.861  30.462  1.00 29.66    -0.205 NA
HETATM   25  C5  PAP A 125      42.888  -6.163  28.827  1.00 29.93     0.155 A 
HETATM   26  C2  PAP A 125      41.209  -4.558  30.118  1.00 28.29     0.202 A 
HETATM   27  N1  PAP A 125      42.032  -3.953  29.248  1.00 27.66    -0.202 NA
HETATM   28  C6  PAP A 125      42.920  -4.726  28.569  1.00 28.82     0.206 A 
HETATM   29  N6  PAP A 125      43.828  -4.157  27.753  1.00 26.39    -0.125 N 
HETATM   30  N7  PAP A 125      43.637  -7.254  28.279  1.00 30.19    -0.219 NA
HETATM   31  C8  PAP A 125      43.166  -8.311  28.872  1.00 28.80     0.182 A 
ENDBRANCH   6  22
TORSDOF 8
ENDMDL
MODEL 8
REMARK VINA RESULT:    -5.031      7.215      9.312
REMARK INTER + INTRA:          -8.479
REMARK INTER:                  -7.073
REMARK INTRA:                  -1.406
REMARK UNBOUND:                -1.095
REMARK  8 active torsions:
REMARK  status: ('A' for Active; 'I' for Inactive)
REMARK    1  A    between atoms: P_1  and  O3'_9 
REMARK    2  A    between atoms: PA_2  and  O5'_5 
REMARK    3  A    between atoms: PA_2  and  O3A_23 
REMARK    4  A    between atoms: PB_3  and  O3A_23 
REMARK    5  A    between atoms: C5'_4  and  O5'_5 
REMARK    6  A    between atoms: C5'_4  and  C4'_6 
REMARK    7  A    between atoms: C3'_8  and  O3'_9 
REMARK    8  A    between atoms: C1'_12  and  N9_31 
ROOT
HETATM    1  C4' PAP A 125      39.567   2.651  44.160  1.00 30.66     0.178 C 
HETATM    2  O4' PAP A 125      40.114   3.959  43.960  1.00 30.64    -0.331 OA
HETATM    3  C3' PAP A 125      40.714   1.768  44.724  1.00 32.01     0.192 C 
HETATM    4  C2' PAP A 125      41.654   2.832  45.277  1.00 31.03     0.231 C 
HETATM    5  O2' PAP A 125      42.995   2.313  45.418  1.00 29.14    -0.216 OA
HETATM    6  C1' PAP A 125      41.519   3.810  44.092  1.00 29.59     0.241 C 
ENDROOT
BRANCH   1   7
HETATM    7  C5' PAP A 125      38.429   2.829  45.123  1.00 29.07     0.187 C 
BRANCH   7   8
HETATM    8  O5' PAP A 125      37.694   1.621  45.069  1.00 30.13    -0.268 OA
BRANCH   8   9
HETATM    9  PA  PAP A 125      36.933   1.049  46.390  1.00 31.22     0.419 P 
HETATM   10  O1A PAP A 125      37.955   0.310  47.188  1.00 32.37    -0.624 OA
HETATM   11  O2A PAP A 125      36.196   2.165  47.041  1.00 32.57    -0.624 OA
BRANCH   9  12
HETATM   12  O3A PAP A 125      35.907  -0.195  45.790  1.00 29.92    -0.173 OA
BRANCH  12  13
HETATM   13  PB  PAP A 125      36.047  -1.552  44.870  1.00 26.94     0.431 P 
HETATM   14  O1B PAP A 125      36.696  -1.109  43.620  1.00 24.20    -0.616 OA
HETATM   15  O2B PAP A 125      36.882  -2.465  45.721  1.00 26.86    -0.616 OA
HETATM   16  O3B PAP A 125      34.657  -2.032  44.683  1.00 28.16    -0.616 OA
ENDBRANCH  12  13
ENDBRANCH   9  12
ENDBRANCH   8   9
ENDBRANCH   7   8
ENDBRANCH   1   7
BRANCH   3  17
HETATM   17  O3' PAP A 125      41.333   1.026  43.635  1.00 36.20    -0.261 OA
BRANCH  17  18
HETATM   18  P   PAP A 125      40.701  -0.477  43.130  1.00 39.68     0.423 P 
HETATM   19  O1  PAP A 125      39.930  -0.870  44.336  1.00 40.50    -0.617 OA
HETATM   20  O2  PAP A 125      39.881  -0.103  41.950  1.00 39.38    -0.617 OA
HETATM   21  O3  PAP A 125      41.878  -1.327  42.773  1.00 40.59    -0.617 OA
ENDBRANCH  17  18
ENDBRANCH   3  17
BRANCH   6  22
HETATM   22  N9  PAP A 125      42.015   5.189  44.306  1.00 29.22    -0.270 N 
HETATM   23  C4  PAP A 125      43.332   5.719  44.298  1.00 29.28     0.170 A 
HETATM   24  N3  PAP A 125      44.543   5.083  44.107  1.00 29.66    -0.205 NA
HETATM   25  C5  PAP A 125      43.178   7.078  44.547  1.00 29.93     0.155 A 
HETATM   26  C2  PAP A 125      45.567   5.964  44.208  1.00 28.29     0.202 A 
HETATM   27  N1  PAP A 125      45.574   7.284  44.447  1.00 27.66    -0.202 NA
HETATM   28  C6  PAP A 125      44.378   7.907  44.616  1.00 28.82     0.206 A 
HETATM   29  N6  PAP A 125      44.327   9.244  44.768  1.00 26.39    -0.125 N 
HETATM   30  N7  PAP A 125      41.788   7.384  44.709  1.00 30.19    -0.219 NA
HETATM   31  C8  PAP A 125      41.177   6.247  44.557  1.00 28.80     0.182 A 
ENDBRANCH   6  22
TORSDOF 8
ENDMDL
MODEL 9
REMARK VINA RESULT:    -4.955     11.312     13.494
REMARK INTER + INTRA:          -8.368
REMARK INTER:                  -6.760
REMARK INTRA:                  -1.608
REMARK UNBOUND:                -1.095
REMARK  8 active torsions:
REMARK  status: ('A' for Active; 'I' for Inactive)
REMARK    1  A    between atoms: P_1  and  O3'_9 
REMARK    2  A    between atoms: PA_2  and  O5'_5 
REMARK    3  A    between atoms: PA_2  and  O3A_23 
REMARK    4  A    between atoms: PB_3  and  O3A_23 
REMARK    5  A    between atoms: C5'_4  and  O5'_5 
REMARK    6  A    between atoms: C5'_4  and  C4'_6 
REMARK    7  A    between atoms: C3'_8  and  O3'_9 
REMARK    8  A    between atoms: C1'_12  and  N9_31 
ROOT
HETATM    1  C4' PAP A 125      41.884 -10.378  32.276  1.00 30.66     0.178 C 
HETATM    2  O4' PAP A 125      42.204  -9.107  31.702  1.00 30.64    -0.331 OA
HETATM    3  C3' PAP A 125      41.199 -11.212  31.159  1.00 32.01     0.192 C 
HETATM    4  C2' PAP A 125      41.690 -10.487  29.912  1.00 31.03     0.231 C 
HETATM    5  O2' PAP A 125      40.829 -10.758  28.785  1.00 29.14    -0.216 OA
HETATM    6  C1' PAP A 125      41.511  -9.059  30.466  1.00 29.59     0.241 C 
ENDROOT
BRANCH   1   7
HETATM    7  C5' PAP A 125      43.190 -10.961  32.732  1.00 29.07     0.187 C 
BRANCH   7   8
HETATM    8  O5' PAP A 125      43.061 -12.359  32.568  1.00 30.13    -0.268 OA
BRANCH   8   9
HETATM    9  PA  PAP A 125      44.317 -13.354  32.861  1.00 31.22     0.419 P 
HETATM   10  O1A PAP A 125      45.380 -12.525  33.501  1.00 32.37    -0.624 OA
HETATM   11  O2A PAP A 125      43.819 -14.554  33.587  1.00 32.57    -0.624 OA
BRANCH   9  12
HETATM   12  O3A PAP A 125      44.957 -13.709  31.305  1.00 29.92    -0.173 OA
BRANCH  12  13
HETATM   13  PB  PAP A 125      44.768 -13.177  29.759  1.00 26.94     0.431 P 
HETATM   14  O1B PAP A 125      45.016 -11.722  29.815  1.00 24.20    -0.616 OA
HETATM   15  O2B PAP A 125      45.798 -13.959  28.994  1.00 26.86    -0.616 OA
HETATM   16  O3B PAP A 125      43.375 -13.532  29.399  1.00 28.16    -0.616 OA
ENDBRANCH  12  13
ENDBRANCH   9  12
ENDBRANCH   8   9
ENDBRANCH   7   8
ENDBRANCH   1   7
BRANCH   3  17
HETATM   17  O3' PAP A 125      39.753 -11.111  31.297  1.00 36.20    -0.261 OA
BRANCH  17  18
HETATM   18  P   PAP A 125      38.818 -12.471  31.734  1.00 39.68     0.423 P 
HETATM   19  O1  PAP A 125      38.394 -12.954  30.396  1.00 40.50    -0.617 OA
HETATM   20  O2  PAP A 125      39.806 -13.332  32.432  1.00 39.38    -0.617 OA
HETATM   21  O3  PAP A 125      37.743 -11.966  32.642  1.00 40.59    -0.617 OA
ENDBRANCH  17  18
ENDBRANCH   3  17
BRANCH   6  22
HETATM   22  N9  PAP A 125      42.173  -7.966  29.717  1.00 29.22    -0.270 N 
HETATM   23  C4  PAP A 125      41.954  -6.563  29.727  1.00 29.28     0.170 A 
HETATM   24  N3  PAP A 125      41.035  -5.813  30.434  1.00 29.66    -0.205 NA
HETATM   25  C5  PAP A 125      42.883  -6.045  28.831  1.00 29.93     0.155 A 
HETATM   26  C2  PAP A 125      41.151  -4.499  30.125  1.00 28.29     0.202 A 
HETATM   27  N1  PAP A 125      41.981  -3.860  29.287  1.00 27.66    -0.202 NA
HETATM   28  C6  PAP A 125      42.896  -4.602  28.608  1.00 28.82     0.206 A 
HETATM   29  N6  PAP A 125      43.811  -3.998  27.826  1.00 26.39    -0.125 N 
HETATM   30  N7  PAP A 125      43.660  -7.110  28.273  1.00 30.19    -0.219 NA
HETATM   31  C8  PAP A 125      43.196  -8.189  28.830  1.00 28.80     0.182 A 
ENDBRANCH   6  22
TORSDOF 8
ENDMDL
