MODEL 1
REMARK VINA RESULT:    -5.935      0.000      0.000
REMARK INTER + INTRA:          -9.996
REMARK INTER:                  -8.711
REMARK INTRA:                  -1.285
REMARK UNBOUND:                -1.285
REMARK  8 active torsions:
REMARK  status: ('A' for Active; 'I' for Inactive)
REMARK    1  A    between atoms: P_1  and  O3'_9 
REMARK    2  A    between atoms: PA_2  and  O5'_5 
REMARK    3  A    between atoms: PA_2  and  O3A_23 
REMARK    4  A    between atoms: PB_3  and  O3A_23 
REMARK    5  A    between atoms: C5'_4  and  O5'_5 
REMARK    6  A    between atoms: C5'_4  and  C4'_6 
REMARK    7  A    between atoms: C3'_8  and  O3'_9 
REMARK    8  A    between atoms: C1'_12  and  N9_31 
ROOT
HETATM    1  C4' PAP A 125      39.525   3.242  24.990  1.00 30.66     0.178 C 
HETATM    2  O4' PAP A 125      38.765   2.031  24.920  1.00 30.64    -0.331 OA
HETATM    3  C3' PAP A 125      40.823   3.003  24.170  1.00 32.01     0.192 C 
HETATM    4  C2' PAP A 125      40.396   1.839  23.284  1.00 31.03     0.231 C 
HETATM    5  O2' PAP A 125      41.547   1.124  22.782  1.00 29.14    -0.216 OA
HETATM    6  C1' PAP A 125      39.645   1.058  24.381  1.00 29.59     0.241 C 
ENDROOT
BRANCH   1   7
HETATM    7  C5' PAP A 125      38.645   4.309  24.405  1.00 29.07     0.187 C 
BRANCH   7   8
HETATM    8  O5' PAP A 125      37.454   4.279  25.167  1.00 30.13    -0.268 OA
BRANCH   8   9
HETATM    9  PA  PAP A 125      36.050   3.792  24.502  1.00 31.22     0.419 P 
HETATM   10  O1A PAP A 125      36.327   3.526  23.060  1.00 32.37    -0.624 OA
HETATM   11  O2A PAP A 125      35.483   2.692  25.330  1.00 32.57    -0.624 OA
BRANCH   9  12
HETATM   12  O3A PAP A 125      35.072   5.206  24.476  1.00 29.92    -0.173 OA
BRANCH  12  13
HETATM   13  PB  PAP A 125      35.274   6.824  24.247  1.00 26.94     0.431 P 
HETATM   14  O1B PAP A 125      36.434   6.946  23.341  1.00 24.20    -0.616 OA
HETATM   15  O2B PAP A 125      33.965   7.257  23.652  1.00 26.86    -0.616 OA
HETATM   16  O3B PAP A 125      35.515   7.374  25.602  1.00 28.16    -0.616 OA
ENDBRANCH  12  13
ENDBRANCH   9  12
ENDBRANCH   8   9
ENDBRANCH   7   8
ENDBRANCH   1   7
BRANCH   3  17
HETATM   17  O3' PAP A 125      41.900   2.617  25.072  1.00 36.20    -0.261 OA
BRANCH  17  18
HETATM   18  P   PAP A 125      43.263   3.622  25.286  1.00 39.68     0.423 P 
HETATM   19  O1  PAP A 125      44.207   2.672  25.924  1.00 40.50    -0.617 OA
HETATM   20  O2  PAP A 125      43.602   4.010  23.894  1.00 39.38    -0.617 OA
HETATM   21  O3  PAP A 125      42.804   4.778  26.116  1.00 40.59    -0.617 OA
ENDBRANCH  17  18
ENDBRANCH   3  17
BRANCH   6  22
HETATM   22  N9  PAP A 125      38.751  -0.033  23.929  1.00 29.22    -0.270 N 
HETATM   23  C4  PAP A 125      39.017  -1.398  23.641  1.00 29.28     0.170 A 
HETATM   24  N3  PAP A 125      40.206  -2.098  23.682  1.00 29.66    -0.205 NA
HETATM   25  C5  PAP A 125      37.789  -1.936  23.273  1.00 29.93     0.155 A 
HETATM   26  C2  PAP A 125      40.017  -3.384  23.301  1.00 28.29     0.202 A 
HETATM   27  N1  PAP A 125      38.909  -4.037  22.918  1.00 27.66    -0.202 NA
HETATM   28  C6  PAP A 125      37.739  -3.347  22.898  1.00 28.82     0.206 A 
HETATM   29  N6  PAP A 125      36.585  -3.979  22.610  1.00 26.39    -0.125 N 
HETATM   30  N7  PAP A 125      36.780  -0.921  23.330  1.00 30.19    -0.219 NA
HETATM   31  C8  PAP A 125      37.408   0.150  23.716  1.00 28.80     0.182 A 
ENDBRANCH   6  22
TORSDOF 8
ENDMDL
MODEL 2
REMARK VINA RESULT:    -5.890      1.626      2.393
REMARK INTER + INTRA:          -9.930
REMARK INTER:                  -8.639
REMARK INTRA:                  -1.291
REMARK UNBOUND:                -1.285
REMARK  8 active torsions:
REMARK  status: ('A' for Active; 'I' for Inactive)
REMARK    1  A    between atoms: P_1  and  O3'_9 
REMARK    2  A    between atoms: PA_2  and  O5'_5 
REMARK    3  A    between atoms: PA_2  and  O3A_23 
REMARK    4  A    between atoms: PB_3  and  O3A_23 
REMARK    5  A    between atoms: C5'_4  and  O5'_5 
REMARK    6  A    between atoms: C5'_4  and  C4'_6 
REMARK    7  A    between atoms: C3'_8  and  O3'_9 
REMARK    8  A    between atoms: C1'_12  and  N9_31 
ROOT
HETATM    1  C4' PAP A 125      37.567   1.329  24.567  1.00 30.66     0.178 C 
HETATM    2  O4' PAP A 125      37.382  -0.075  24.362  1.00 30.64    -0.331 OA
HETATM    3  C3' PAP A 125      38.757   1.760  23.667  1.00 32.01     0.192 C 
HETATM    4  C2' PAP A 125      38.772   0.628  22.646  1.00 31.03     0.231 C 
HETATM    5  O2' PAP A 125      40.061   0.535  21.999  1.00 29.14    -0.216 OA
HETATM    6  C1' PAP A 125      38.531  -0.513  23.654  1.00 29.59     0.241 C 
ENDROOT
BRANCH   1   7
HETATM    7  C5' PAP A 125      36.267   1.972  24.177  1.00 29.07     0.187 C 
BRANCH   7   8
HETATM    8  O5' PAP A 125      36.608   3.261  23.704  1.00 30.13    -0.268 OA
BRANCH   8   9
HETATM    9  PA  PAP A 125      36.540   4.556  24.688  1.00 31.22     0.419 P 
HETATM   10  O1A PAP A 125      36.103   4.057  26.025  1.00 32.37    -0.624 OA
HETATM   11  O2A PAP A 125      37.827   5.298  24.594  1.00 32.57    -0.624 OA
BRANCH   9  12
HETATM   12  O3A PAP A 125      35.186   5.454  24.126  1.00 29.92    -0.173 OA
BRANCH  12  13
HETATM   13  PB  PAP A 125      34.666   7.016  24.146  1.00 26.94     0.431 P 
HETATM   14  O1B PAP A 125      33.192   6.933  24.214  1.00 24.20    -0.616 OA
HETATM   15  O2B PAP A 125      35.319   7.585  25.373  1.00 26.86    -0.616 OA
HETATM   16  O3B PAP A 125      35.173   7.604  22.884  1.00 28.16    -0.616 OA
ENDBRANCH  12  13
ENDBRANCH   9  12
ENDBRANCH   8   9
ENDBRANCH   7   8
ENDBRANCH   1   7
BRANCH   3  17
HETATM   17  O3' PAP A 125      39.979   1.778  24.458  1.00 36.20    -0.261 OA
BRANCH  17  18
HETATM   18  P   PAP A 125      41.065   3.092  24.359  1.00 39.68     0.423 P 
HETATM   19  O1  PAP A 125      42.329   2.380  24.043  1.00 40.50    -0.617 OA
HETATM   20  O2  PAP A 125      40.499   3.897  23.248  1.00 39.38    -0.617 OA
HETATM   21  O3  PAP A 125      40.996   3.791  25.679  1.00 40.59    -0.617 OA
ENDBRANCH  17  18
ENDBRANCH   3  17
BRANCH   6  22
HETATM   22  N9  PAP A 125      38.137  -1.826  23.093  1.00 29.22    -0.270 N 
HETATM   23  C4  PAP A 125      38.910  -2.851  22.486  1.00 29.28     0.170 A 
HETATM   24  N3  PAP A 125      40.265  -2.904  22.226  1.00 29.66    -0.205 NA
HETATM   25  C5  PAP A 125      37.999  -3.852  22.168  1.00 29.93     0.155 A 
HETATM   26  C2  PAP A 125      40.587  -4.063  21.603  1.00 28.29     0.202 A 
HETATM   27  N1  PAP A 125      39.828  -5.105  21.231  1.00 27.66    -0.202 NA
HETATM   28  C6  PAP A 125      38.498  -5.054  21.507  1.00 28.82     0.206 A 
HETATM   29  N6  PAP A 125      37.710  -6.112  21.236  1.00 26.39    -0.125 N 
HETATM   30  N7  PAP A 125      36.683  -3.452  22.569  1.00 30.19    -0.219 NA
HETATM   31  C8  PAP A 125      36.840  -2.273  23.095  1.00 28.80     0.182 A 
ENDBRANCH   6  22
TORSDOF 8
ENDMDL
MODEL 3
REMARK VINA RESULT:    -5.622      1.869      5.898
REMARK INTER + INTRA:          -9.536
REMARK INTER:                  -7.961
REMARK INTRA:                  -1.576
REMARK UNBOUND:                -1.285
REMARK  8 active torsions:
REMARK  status: ('A' for Active; 'I' for Inactive)
REMARK    1  A    between atoms: P_1  and  O3'_9 
REMARK    2  A    between atoms: PA_2  and  O5'_5 
REMARK    3  A    between atoms: PA_2  and  O3A_23 
REMARK    4  A    between atoms: PB_3  and  O3A_23 
REMARK    5  A    between atoms: C5'_4  and  O5'_5 
REMARK    6  A    between atoms: C5'_4  and  C4'_6 
REMARK    7  A    between atoms: C3'_8  and  O3'_9 
REMARK    8  A    between atoms: C1'_12  and  N9_31 
ROOT
HETATM    1  C4' PAP A 125      37.846   4.993  23.798  1.00 30.66     0.178 C 
HETATM    2  O4' PAP A 125      38.136   3.707  23.239  1.00 30.64    -0.331 OA
HETATM    3  C3' PAP A 125      36.637   4.801  24.754  1.00 32.01     0.192 C 
HETATM    4  C2' PAP A 125      36.717   3.304  25.027  1.00 31.03     0.231 C 
HETATM    5  O2' PAP A 125      35.447   2.796  25.490  1.00 29.14    -0.216 OA
HETATM    6  C1' PAP A 125      37.031   2.884  23.577  1.00 29.59     0.241 C 
ENDROOT
BRANCH   1   7
HETATM    7  C5' PAP A 125      39.098   5.422  24.506  1.00 29.07     0.187 C 
BRANCH   7   8
HETATM    8  O5' PAP A 125      40.113   5.412  23.521  1.00 30.13    -0.268 OA
BRANCH   8   9
HETATM    9  PA  PAP A 125      41.626   4.934  23.886  1.00 31.22     0.419 P 
HETATM   10  O1A PAP A 125      42.480   5.273  22.710  1.00 32.37    -0.624 OA
HETATM   11  O2A PAP A 125      41.997   5.489  25.216  1.00 32.57    -0.624 OA
BRANCH   9  12
HETATM   12  O3A PAP A 125      41.554   3.216  23.855  1.00 29.92    -0.173 OA
BRANCH  12  13
HETATM   13  PB  PAP A 125      41.449   1.980  24.937  1.00 26.94     0.431 P 
HETATM   14  O1B PAP A 125      40.070   2.040  25.463  1.00 24.20    -0.616 OA
HETATM   15  O2B PAP A 125      41.752   0.765  24.109  1.00 26.86    -0.616 OA
HETATM   16  O3B PAP A 125      42.488   2.273  25.953  1.00 28.16    -0.616 OA
ENDBRANCH  12  13
ENDBRANCH   9  12
ENDBRANCH   8   9
ENDBRANCH   7   8
ENDBRANCH   1   7
BRANCH   3  17
HETATM   17  O3' PAP A 125      35.408   5.149  24.055  1.00 36.20    -0.261 OA
BRANCH  17  18
HETATM   18  P   PAP A 125      34.830   6.755  24.048  1.00 39.68     0.423 P 
HETATM   19  O1  PAP A 125      35.453   7.277  25.289  1.00 40.50    -0.617 OA
HETATM   20  O2  PAP A 125      35.392   7.295  22.784  1.00 39.38    -0.617 OA
HETATM   21  O3  PAP A 125      33.338   6.663  24.027  1.00 40.59    -0.617 OA
ENDBRANCH  17  18
ENDBRANCH   3  17
BRANCH   6  22
HETATM   22  N9  PAP A 125      37.528   1.504  23.376  1.00 29.22    -0.270 N 
HETATM   23  C4  PAP A 125      38.536   0.991  22.517  1.00 29.28     0.170 A 
HETATM   24  N3  PAP A 125      39.336   1.642  21.600  1.00 29.66    -0.205 NA
HETATM   25  C5  PAP A 125      38.568  -0.376  22.772  1.00 29.93     0.155 A 
HETATM   26  C2  PAP A 125      40.152   0.765  20.968  1.00 28.29     0.202 A 
HETATM   27  N1  PAP A 125      40.290  -0.563  21.100  1.00 27.66    -0.202 NA
HETATM   28  C6  PAP A 125      39.512  -1.196  22.018  1.00 28.82     0.206 A 
HETATM   29  N6  PAP A 125      39.677  -2.512  22.254  1.00 26.39    -0.125 N 
HETATM   30  N7  PAP A 125      37.594  -0.704  23.769  1.00 30.19    -0.219 NA
HETATM   31  C8  PAP A 125      37.032   0.429  24.071  1.00 28.80     0.182 A 
ENDBRANCH   6  22
TORSDOF 8
ENDMDL
MODEL 4
REMARK VINA RESULT:    -5.576      2.043      2.857
REMARK INTER + INTRA:          -9.469
REMARK INTER:                  -8.140
REMARK INTRA:                  -1.329
REMARK UNBOUND:                -1.285
REMARK  8 active torsions:
REMARK  status: ('A' for Active; 'I' for Inactive)
REMARK    1  A    between atoms: P_1  and  O3'_9 
REMARK    2  A    between atoms: PA_2  and  O5'_5 
REMARK    3  A    between atoms: PA_2  and  O3A_23 
REMARK    4  A    between atoms: PB_3  and  O3A_23 
REMARK    5  A    between atoms: C5'_4  and  O5'_5 
REMARK    6  A    between atoms: C5'_4  and  C4'_6 
REMARK    7  A    between atoms: C3'_8  and  O3'_9 
REMARK    8  A    between atoms: C1'_12  and  N9_31 
ROOT
HETATM    1  C4' PAP A 125      38.418   1.890  24.047  1.00 30.66     0.178 C 
HETATM    2  O4' PAP A 125      38.739   0.500  24.160  1.00 30.64    -0.331 OA
HETATM    3  C3' PAP A 125      38.945   2.359  22.663  1.00 32.01     0.192 C 
HETATM    4  C2' PAP A 125      39.042   1.029  21.924  1.00 31.03     0.231 C 
HETATM    5  O2' PAP A 125      39.947   1.128  20.802  1.00 29.14    -0.216 OA
HETATM    6  C1' PAP A 125      39.638   0.226  23.098  1.00 29.59     0.241 C 
ENDROOT
BRANCH   1   7
HETATM    7  C5' PAP A 125      36.924   1.975  24.170  1.00 29.07     0.187 C 
BRANCH   7   8
HETATM    8  O5' PAP A 125      36.574   3.253  23.676  1.00 30.13    -0.268 OA
BRANCH   8   9
HETATM    9  PA  PAP A 125      36.537   4.548  24.664  1.00 31.22     0.419 P 
HETATM   10  O1A PAP A 125      36.224   4.036  26.031  1.00 32.37    -0.624 OA
HETATM   11  O2A PAP A 125      37.784   5.336  24.470  1.00 32.57    -0.624 OA
BRANCH   9  12
HETATM   12  O3A PAP A 125      35.111   5.394  24.210  1.00 29.92    -0.173 OA
BRANCH  12  13
HETATM   13  PB  PAP A 125      34.614   6.957  24.067  1.00 26.94     0.431 P 
HETATM   14  O1B PAP A 125      35.271   7.677  25.178  1.00 24.20    -0.616 OA
HETATM   15  O2B PAP A 125      35.090   7.350  22.698  1.00 26.86    -0.616 OA
HETATM   16  O3B PAP A 125      33.138   6.902  24.183  1.00 28.16    -0.616 OA
ENDBRANCH  12  13
ENDBRANCH   9  12
ENDBRANCH   8   9
ENDBRANCH   7   8
ENDBRANCH   1   7
BRANCH   3  17
HETATM   17  O3' PAP A 125      40.256   2.972  22.827  1.00 36.20    -0.261 OA
BRANCH  17  18
HETATM   18  P   PAP A 125      40.602   4.494  22.136  1.00 39.68     0.423 P 
HETATM   19  O1  PAP A 125      41.681   4.124  21.185  1.00 40.50    -0.617 OA
HETATM   20  O2  PAP A 125      39.309   4.867  21.510  1.00 39.38    -0.617 OA
HETATM   21  O3  PAP A 125      40.980   5.392  23.270  1.00 40.59    -0.617 OA
ENDBRANCH  17  18
ENDBRANCH   3  17
BRANCH   6  22
HETATM   22  N9  PAP A 125      39.620  -1.249  22.973  1.00 29.22    -0.270 N 
HETATM   23  C4  PAP A 125      38.538  -2.164  22.870  1.00 29.28     0.170 A 
HETATM   24  N3  PAP A 125      37.177  -1.933  22.879  1.00 29.66    -0.205 NA
HETATM   25  C5  PAP A 125      39.132  -3.417  22.766  1.00 29.93     0.155 A 
HETATM   26  C2  PAP A 125      36.493  -3.098  22.785  1.00 28.29     0.202 A 
HETATM   27  N1  PAP A 125      36.921  -4.366  22.686  1.00 27.66    -0.202 NA
HETATM   28  C6  PAP A 125      38.262  -4.585  22.659  1.00 28.82     0.206 A 
HETATM   29  N6  PAP A 125      38.741  -5.829  22.469  1.00 26.39    -0.125 N 
HETATM   30  N7  PAP A 125      40.556  -3.281  22.806  1.00 30.19    -0.219 NA
HETATM   31  C8  PAP A 125      40.765  -2.003  22.926  1.00 28.80     0.182 A 
ENDBRANCH   6  22
TORSDOF 8
ENDMDL
MODEL 5
REMARK VINA RESULT:    -5.541      2.731      6.200
REMARK INTER + INTRA:          -9.418
REMARK INTER:                  -7.835
REMARK INTRA:                  -1.583
REMARK UNBOUND:                -1.285
REMARK  8 active torsions:
REMARK  status: ('A' for Active; 'I' for Inactive)
REMARK    1  A    between atoms: P_1  and  O3'_9 
REMARK    2  A    between atoms: PA_2  and  O5'_5 
REMARK    3  A    between atoms: PA_2  and  O3A_23 
REMARK    4  A    between atoms: PB_3  and  O3A_23 
REMARK    5  A    between atoms: C5'_4  and  O5'_5 
REMARK    6  A    between atoms: C5'_4  and  C4'_6 
REMARK    7  A    between atoms: C3'_8  and  O3'_9 
REMARK    8  A    between atoms: C1'_12  and  N9_31 
ROOT
HETATM    1  C4' PAP A 125      37.477   5.002  22.595  1.00 30.66     0.178 C 
HETATM    2  O4' PAP A 125      37.642   3.585  22.485  1.00 30.64    -0.331 OA
HETATM    3  C3' PAP A 125      36.948   5.281  24.028  1.00 32.01     0.192 C 
HETATM    4  C2' PAP A 125      37.376   4.008  24.748  1.00 31.03     0.231 C 
HETATM    5  O2' PAP A 125      36.596   3.807  25.947  1.00 29.14    -0.216 OA
HETATM    6  C1' PAP A 125      36.988   3.034  23.618  1.00 29.59     0.241 C 
ENDROOT
BRANCH   1   7
HETATM    7  C5' PAP A 125      38.835   5.590  22.341  1.00 29.07     0.187 C 
BRANCH   7   8
HETATM    8  O5' PAP A 125      39.162   5.233  21.013  1.00 30.13    -0.268 OA
BRANCH   8   9
HETATM    9  PA  PAP A 125      40.541   4.434  20.679  1.00 31.22     0.419 P 
HETATM   10  O1A PAP A 125      41.070   5.004  19.405  1.00 32.37    -0.624 OA
HETATM   11  O2A PAP A 125      41.414   4.459  21.884  1.00 32.57    -0.624 OA
BRANCH   9  12
HETATM   12  O3A PAP A 125      40.027   2.854  20.235  1.00 29.92    -0.173 OA
BRANCH  12  13
HETATM   13  PB  PAP A 125      40.654   1.537  19.473  1.00 26.94     0.431 P 
HETATM   14  O1B PAP A 125      42.100   1.812  19.348  1.00 24.20    -0.616 OA
HETATM   15  O2B PAP A 125      40.309   0.403  20.395  1.00 26.86    -0.616 OA
HETATM   16  O3B PAP A 125      39.944   1.474  18.174  1.00 28.16    -0.616 OA
ENDBRANCH  12  13
ENDBRANCH   9  12
ENDBRANCH   8   9
ENDBRANCH   7   8
ENDBRANCH   1   7
BRANCH   3  17
HETATM   17  O3' PAP A 125      35.497   5.407  23.991  1.00 36.20    -0.261 OA
BRANCH  17  18
HETATM   18  P   PAP A 125      34.751   6.941  24.059  1.00 39.68     0.423 P 
HETATM   19  O1  PAP A 125      35.363   7.490  25.295  1.00 40.50    -0.617 OA
HETATM   20  O2  PAP A 125      35.202   7.577  22.795  1.00 39.38    -0.617 OA
HETATM   21  O3  PAP A 125      33.277   6.688  24.089  1.00 40.59    -0.617 OA
ENDBRANCH  17  18
ENDBRANCH   3  17
BRANCH   6  22
HETATM   22  N9  PAP A 125      37.520   1.656  23.714  1.00 29.22    -0.270 N 
HETATM   23  C4  PAP A 125      38.854   1.169  23.728  1.00 29.28     0.170 A 
HETATM   24  N3  PAP A 125      40.049   1.853  23.633  1.00 29.66    -0.205 NA
HETATM   25  C5  PAP A 125      38.735  -0.211  23.848  1.00 29.93     0.155 A 
HETATM   26  C2  PAP A 125      41.096   0.994  23.660  1.00 28.29     0.202 A 
HETATM   27  N1  PAP A 125      41.137  -0.343  23.764  1.00 27.66    -0.202 NA
HETATM   28  C6  PAP A 125      39.958  -1.009  23.875  1.00 28.82     0.206 A 
HETATM   29  N6  PAP A 125      39.949  -2.341  24.074  1.00 26.39    -0.125 N 
HETATM   30  N7  PAP A 125      37.350  -0.573  23.905  1.00 30.19    -0.219 NA
HETATM   31  C8  PAP A 125      36.708   0.554  23.822  1.00 28.80     0.182 A 
ENDBRANCH   6  22
TORSDOF 8
ENDMDL
MODEL 6
REMARK VINA RESULT:    -5.526      2.518      3.537
REMARK INTER + INTRA:          -9.396
REMARK INTER:                  -8.039
REMARK INTRA:                  -1.357
REMARK UNBOUND:                -1.285
REMARK  8 active torsions:
REMARK  status: ('A' for Active; 'I' for Inactive)
REMARK    1  A    between atoms: P_1  and  O3'_9 
REMARK    2  A    between atoms: PA_2  and  O5'_5 
REMARK    3  A    between atoms: PA_2  and  O3A_23 
REMARK    4  A    between atoms: PB_3  and  O3A_23 
REMARK    5  A    between atoms: C5'_4  and  O5'_5 
REMARK    6  A    between atoms: C5'_4  and  C4'_6 
REMARK    7  A    between atoms: C3'_8  and  O3'_9 
REMARK    8  A    between atoms: C1'_12  and  N9_31 
ROOT
HETATM    1  C4' PAP A 125      37.338   4.691  24.886  1.00 30.66     0.178 C 
HETATM    2  O4' PAP A 125      37.442   3.264  24.922  1.00 30.64    -0.331 OA
HETATM    3  C3' PAP A 125      38.061   5.159  23.593  1.00 32.01     0.192 C 
HETATM    4  C2' PAP A 125      38.037   3.878  22.768  1.00 31.03     0.231 C 
HETATM    5  O2' PAP A 125      39.053   3.908  21.741  1.00 29.14    -0.216 OA
HETATM    6  C1' PAP A 125      38.393   2.924  23.926  1.00 29.59     0.241 C 
ENDROOT
BRANCH   1   7
HETATM    7  C5' PAP A 125      35.867   4.992  24.883  1.00 29.07     0.187 C 
BRANCH   7   8
HETATM    8  O5' PAP A 125      35.767   6.396  25.022  1.00 30.13    -0.268 OA
BRANCH   8   9
HETATM    9  PA  PAP A 125      34.837   7.271  24.011  1.00 31.22     0.419 P 
HETATM   10  O1A PAP A 125      35.380   7.058  22.636  1.00 32.37    -0.624 OA
HETATM   11  O2A PAP A 125      33.409   6.943  24.267  1.00 32.57    -0.624 OA
BRANCH   9  12
HETATM   12  O3A PAP A 125      35.241   8.905  24.359  1.00 29.92    -0.173 OA
BRANCH  12  13
HETATM   13  PB  PAP A 125      35.024   9.979  25.588  1.00 26.94     0.431 P 
HETATM   14  O1B PAP A 125      33.581  10.291  25.581  1.00 24.20    -0.616 OA
HETATM   15  O2B PAP A 125      35.497   9.224  26.798  1.00 26.86    -0.616 OA
HETATM   16  O3B PAP A 125      35.886  11.134  25.243  1.00 28.16    -0.616 OA
ENDBRANCH  12  13
ENDBRANCH   9  12
ENDBRANCH   8   9
ENDBRANCH   7   8
ENDBRANCH   1   7
BRANCH   3  17
HETATM   17  O3' PAP A 125      39.423   5.557  23.918  1.00 36.20    -0.261 OA
BRANCH  17  18
HETATM   18  P   PAP A 125      39.913   7.187  23.789  1.00 39.68     0.423 P 
HETATM   19  O1  PAP A 125      40.336   7.236  22.367  1.00 40.50    -0.617 OA
HETATM   20  O2  PAP A 125      38.664   7.926  24.102  1.00 39.38    -0.617 OA
HETATM   21  O3  PAP A 125      40.979   7.386  24.819  1.00 40.59    -0.617 OA
ENDBRANCH  17  18
ENDBRANCH   3  17
BRANCH   6  22
HETATM   22  N9  PAP A 125      38.174   1.479  23.689  1.00 29.22    -0.270 N 
HETATM   23  C4  PAP A 125      38.952   0.520  22.988  1.00 29.28     0.170 A 
HETATM   24  N3  PAP A 125      40.140   0.672  22.300  1.00 29.66    -0.205 NA
HETATM   25  C5  PAP A 125      38.254  -0.676  23.114  1.00 29.93     0.155 A 
HETATM   26  C2  PAP A 125      40.528  -0.502  21.749  1.00 28.29     0.202 A 
HETATM   27  N1  PAP A 125      39.964  -1.719  21.778  1.00 27.66    -0.202 NA
HETATM   28  C6  PAP A 125      38.804  -1.867  22.473  1.00 28.82     0.206 A 
HETATM   29  N6  PAP A 125      38.247  -3.086  22.609  1.00 26.39    -0.125 N 
HETATM   30  N7  PAP A 125      37.062  -0.460  23.878  1.00 30.19    -0.219 NA
HETATM   31  C8  PAP A 125      37.082   0.805  24.176  1.00 28.80     0.182 A 
ENDBRANCH   6  22
TORSDOF 8
ENDMDL
MODEL 7
REMARK VINA RESULT:    -5.494      3.887      7.331
REMARK INTER + INTRA:          -9.349
REMARK INTER:                  -7.714
REMARK INTRA:                  -1.635
REMARK UNBOUND:                -1.285
REMARK  8 active torsions:
REMARK  status: ('A' for Active; 'I' for Inactive)
REMARK    1  A    between atoms: P_1  and  O3'_9 
REMARK    2  A    between atoms: PA_2  and  O5'_5 
REMARK    3  A    between atoms: PA_2  and  O3A_23 
REMARK    4  A    between atoms: PB_3  and  O3A_23 
REMARK    5  A    between atoms: C5'_4  and  O5'_5 
REMARK    6  A    between atoms: C5'_4  and  C4'_6 
REMARK    7  A    between atoms: C3'_8  and  O3'_9 
REMARK    8  A    between atoms: C1'_12  and  N9_31 
ROOT
HETATM    1  C4' PAP A 125      36.794   2.948  24.911  1.00 30.66     0.178 C 
HETATM    2  O4' PAP A 125      38.102   2.635  25.400  1.00 30.64    -0.331 OA
HETATM    3  C3' PAP A 125      36.962   4.118  23.903  1.00 32.01     0.192 C 
HETATM    4  C2' PAP A 125      38.437   3.981  23.543  1.00 31.03     0.231 C 
HETATM    5  O2' PAP A 125      38.953   5.219  23.006  1.00 29.14    -0.216 OA
HETATM    6  C1' PAP A 125      38.936   3.701  24.974  1.00 29.59     0.241 C 
ENDROOT
BRANCH   1   7
HETATM    7  C5' PAP A 125      36.285   1.688  24.274  1.00 29.07     0.187 C 
BRANCH   7   8
HETATM    8  O5' PAP A 125      37.278   0.711  24.518  1.00 30.13    -0.268 OA
BRANCH   8   9
HETATM    9  PA  PAP A 125      37.829  -0.237  23.314  1.00 31.22     0.419 P 
HETATM   10  O1A PAP A 125      36.752  -1.229  23.021  1.00 32.37    -0.624 OA
HETATM   11  O2A PAP A 125      38.315   0.629  22.205  1.00 32.57    -0.624 OA
BRANCH   9  12
HETATM   12  O3A PAP A 125      39.067  -1.182  24.042  1.00 29.92    -0.173 OA
BRANCH  12  13
HETATM   13  PB  PAP A 125      40.020  -2.462  23.638  1.00 26.94     0.431 P 
HETATM   14  O1B PAP A 125      39.228  -3.660  23.983  1.00 24.20    -0.616 OA
HETATM   15  O2B PAP A 125      40.258  -2.270  22.168  1.00 26.86    -0.616 OA
HETATM   16  O3B PAP A 125      41.245  -2.300  24.457  1.00 28.16    -0.616 OA
ENDBRANCH  12  13
ENDBRANCH   9  12
ENDBRANCH   8   9
ENDBRANCH   7   8
ENDBRANCH   1   7
BRANCH   3  17
HETATM   17  O3' PAP A 125      36.696   5.380  24.579  1.00 36.20    -0.261 OA
BRANCH  17  18
HETATM   18  P   PAP A 125      35.626   6.526  23.902  1.00 39.68     0.423 P 
HETATM   19  O1  PAP A 125      34.765   5.643  23.077  1.00 40.50    -0.617 OA
HETATM   20  O2  PAP A 125      34.972   7.106  25.102  1.00 39.38    -0.617 OA
HETATM   21  O3  PAP A 125      36.479   7.513  23.172  1.00 40.59    -0.617 OA
ENDBRANCH  17  18
ENDBRANCH   3  17
BRANCH   6  22
HETATM   22  N9  PAP A 125      40.311   3.168  25.108  1.00 29.22    -0.270 N 
HETATM   23  C4  PAP A 125      41.559   3.830  25.251  1.00 29.28     0.170 A 
HETATM   24  N3  PAP A 125      41.849   5.179  25.284  1.00 29.66    -0.205 NA
HETATM   25  C5  PAP A 125      42.501   2.811  25.344  1.00 29.93     0.155 A 
HETATM   26  C2  PAP A 125      43.182   5.380  25.406  1.00 28.29     0.202 A 
HETATM   27  N1  PAP A 125      44.200   4.510  25.500  1.00 27.66    -0.202 NA
HETATM   28  C6  PAP A 125      43.906   3.183  25.485  1.00 28.82     0.206 A 
HETATM   29  N6  PAP A 125      44.881   2.271  25.668  1.00 26.39    -0.125 N 
HETATM   30  N7  PAP A 125      41.847   1.540  25.258  1.00 30.19    -0.219 NA
HETATM   31  C8  PAP A 125      40.586   1.823  25.123  1.00 28.80     0.182 A 
ENDBRANCH   6  22
TORSDOF 8
ENDMDL
MODEL 8
REMARK VINA RESULT:    -5.448      4.496      5.950
REMARK INTER + INTRA:          -9.281
REMARK INTER:                  -7.938
REMARK INTRA:                  -1.344
REMARK UNBOUND:                -1.285
REMARK  8 active torsions:
REMARK  status: ('A' for Active; 'I' for Inactive)
REMARK    1  A    between atoms: P_1  and  O3'_9 
REMARK    2  A    between atoms: PA_2  and  O5'_5 
REMARK    3  A    between atoms: PA_2  and  O3A_23 
REMARK    4  A    between atoms: PB_3  and  O3A_23 
REMARK    5  A    between atoms: C5'_4  and  O5'_5 
REMARK    6  A    between atoms: C5'_4  and  C4'_6 
REMARK    7  A    between atoms: C3'_8  and  O3'_9 
REMARK    8  A    between atoms: C1'_12  and  N9_31 
ROOT
HETATM    1  C4' PAP A 125      37.819   2.984  21.751  1.00 30.66     0.178 C 
HETATM    2  O4' PAP A 125      38.369   3.257  20.458  1.00 30.64    -0.331 OA
HETATM    3  C3' PAP A 125      38.740   1.923  22.413  1.00 32.01     0.192 C 
HETATM    4  C2' PAP A 125      40.021   2.108  21.609  1.00 31.03     0.231 C 
HETATM    5  O2' PAP A 125      40.860   0.936  21.697  1.00 29.14    -0.216 OA
HETATM    6  C1' PAP A 125      39.338   2.247  20.233  1.00 29.59     0.241 C 
ENDROOT
BRANCH   1   7
HETATM    7  C5' PAP A 125      37.812   4.298  22.478  1.00 29.07     0.187 C 
BRANCH   7   8
HETATM    8  O5' PAP A 125      36.606   4.318  23.215  1.00 30.13    -0.268 OA
BRANCH   8   9
HETATM    9  PA  PAP A 125      36.622   4.297  24.843  1.00 31.22     0.419 P 
HETATM   10  O1A PAP A 125      35.506   3.405  25.273  1.00 32.37    -0.624 OA
HETATM   11  O2A PAP A 125      38.001   3.980  25.305  1.00 32.57    -0.624 OA
BRANCH   9  12
HETATM   12  O3A PAP A 125      36.088   5.867  25.300  1.00 29.92    -0.173 OA
BRANCH  12  13
HETATM   13  PB  PAP A 125      35.338   7.152  24.596  1.00 26.94     0.431 P 
HETATM   14  O1B PAP A 125      35.182   8.149  25.675  1.00 24.20    -0.616 OA
HETATM   15  O2B PAP A 125      36.286   7.554  23.503  1.00 26.86    -0.616 OA
HETATM   16  O3B PAP A 125      34.053   6.614  24.090  1.00 28.16    -0.616 OA
ENDBRANCH  12  13
ENDBRANCH   9  12
ENDBRANCH   8   9
ENDBRANCH   7   8
ENDBRANCH   1   7
BRANCH   3  17
HETATM   17  O3' PAP A 125      38.173   0.597  22.211  1.00 36.20    -0.261 OA
BRANCH  17  18
HETATM   18  P   PAP A 125      37.811  -0.411  23.541  1.00 39.68     0.423 P 
HETATM   19  O1  PAP A 125      37.239   0.578  24.488  1.00 40.50    -0.617 OA
HETATM   20  O2  PAP A 125      36.836  -1.370  22.963  1.00 39.38    -0.617 OA
HETATM   21  O3  PAP A 125      39.099  -1.060  23.936  1.00 40.59    -0.617 OA
ENDBRANCH  17  18
ENDBRANCH   3  17
BRANCH   6  22
HETATM   22  N9  PAP A 125      40.169   2.776  19.127  1.00 29.22    -0.270 N 
HETATM   23  C4  PAP A 125      40.842   2.113  18.066  1.00 29.28     0.170 A 
HETATM   24  N3  PAP A 125      40.931   0.767  17.776  1.00 29.66    -0.205 NA
HETATM   25  C5  PAP A 125      41.447   3.128  17.332  1.00 29.93     0.155 A 
HETATM   26  C2  PAP A 125      41.701   0.563  16.681  1.00 28.29     0.202 A 
HETATM   27  N1  PAP A 125      42.347   1.428  15.884  1.00 27.66    -0.202 NA
HETATM   28  C6  PAP A 125      42.241   2.754  16.165  1.00 28.82     0.206 A 
HETATM   29  N6  PAP A 125      42.794   3.667  15.343  1.00 26.39    -0.125 N 
HETATM   30  N7  PAP A 125      41.156   4.396  17.930  1.00 30.19    -0.219 NA
HETATM   31  C8  PAP A 125      40.414   4.116  18.960  1.00 28.80     0.182 A 
ENDBRANCH   6  22
TORSDOF 8
ENDMDL
MODEL 9
REMARK VINA RESULT:    -5.347      2.905      6.019
REMARK INTER + INTRA:          -9.133
REMARK INTER:                  -7.430
REMARK INTRA:                  -1.703
REMARK UNBOUND:                -1.285
REMARK  8 active torsions:
REMARK  status: ('A' for Active; 'I' for Inactive)
REMARK    1  A    between atoms: P_1  and  O3'_9 
REMARK    2  A    between atoms: PA_2  and  O5'_5 
REMARK    3  A    between atoms: PA_2  and  O3A_23 
REMARK    4  A    between atoms: PB_3  and  O3A_23 
REMARK    5  A    between atoms: C5'_4  and  O5'_5 
REMARK    6  A    between atoms: C5'_4  and  C4'_6 
REMARK    7  A    between atoms: C3'_8  and  O3'_9 
REMARK    8  A    between atoms: C1'_12  and  N9_31 
ROOT
HETATM    1  C4' PAP A 125      37.978   3.298  21.703  1.00 30.66     0.178 C 
HETATM    2  O4' PAP A 125      38.180   1.903  21.953  1.00 30.64    -0.331 OA
HETATM    3  C3' PAP A 125      38.203   4.031  23.054  1.00 32.01     0.192 C 
HETATM    4  C2' PAP A 125      39.032   2.999  23.810  1.00 31.03     0.231 C 
HETATM    5  O2' PAP A 125      38.963   3.226  25.235  1.00 29.14    -0.216 OA
HETATM    6  C1' PAP A 125      38.216   1.768  23.365  1.00 29.59     0.241 C 
ENDROOT
BRANCH   1   7
HETATM    7  C5' PAP A 125      38.982   3.673  20.652  1.00 29.07     0.187 C 
BRANCH   7   8
HETATM    8  O5' PAP A 125      38.956   2.621  19.708  1.00 30.13    -0.268 OA
BRANCH   8   9
HETATM    9  PA  PAP A 125      40.036   2.563  18.492  1.00 31.22     0.419 P 
HETATM   10  O1A PAP A 125      39.467   1.653  17.454  1.00 32.37    -0.624 OA
HETATM   11  O2A PAP A 125      40.389   3.954  18.097  1.00 32.57    -0.624 OA
BRANCH   9  12
HETATM   12  O3A PAP A 125      41.360   1.673  19.133  1.00 29.92    -0.173 OA
BRANCH  12  13
HETATM   13  PB  PAP A 125      41.660   0.690  20.418  1.00 26.94     0.431 P 
HETATM   14  O1B PAP A 125      41.878   1.600  21.561  1.00 24.20    -0.616 OA
HETATM   15  O2B PAP A 125      40.417  -0.148  20.513  1.00 26.86    -0.616 OA
HETATM   16  O3B PAP A 125      42.863  -0.085  20.034  1.00 28.16    -0.616 OA
ENDBRANCH  12  13
ENDBRANCH   9  12
ENDBRANCH   8   9
ENDBRANCH   7   8
ENDBRANCH   1   7
BRANCH   3  17
HETATM   17  O3' PAP A 125      36.918   4.257  23.701  1.00 36.20    -0.261 OA
BRANCH  17  18
HETATM   18  P   PAP A 125      36.235   5.821  23.766  1.00 39.68     0.423 P 
HETATM   19  O1  PAP A 125      35.006   5.617  22.959  1.00 40.50    -0.617 OA
HETATM   20  O2  PAP A 125      36.010   6.015  25.221  1.00 39.38    -0.617 OA
HETATM   21  O3  PAP A 125      37.264   6.750  23.208  1.00 40.59    -0.617 OA
ENDBRANCH  17  18
ENDBRANCH   3  17
BRANCH   6  22
HETATM   22  N9  PAP A 125      38.835   0.442  23.590  1.00 29.22    -0.270 N 
HETATM   23  C4  PAP A 125      38.316  -0.870  23.426  1.00 29.28     0.170 A 
HETATM   24  N3  PAP A 125      37.062  -1.284  23.023  1.00 29.66    -0.205 NA
HETATM   25  C5  PAP A 125      39.359  -1.719  23.778  1.00 29.93     0.155 A 
HETATM   26  C2  PAP A 125      36.979  -2.635  23.030  1.00 28.29     0.202 A 
HETATM   27  N1  PAP A 125      37.885  -3.573  23.347  1.00 27.66    -0.202 NA
HETATM   28  C6  PAP A 125      39.124  -3.159  23.725  1.00 28.82     0.206 A 
HETATM   29  N6  PAP A 125      40.095  -4.061  23.965  1.00 26.39    -0.125 N 
HETATM   30  N7  PAP A 125      40.504  -0.946  24.157  1.00 30.19    -0.219 NA
HETATM   31  C8  PAP A 125      40.128   0.292  24.024  1.00 28.80     0.182 A 
ENDBRANCH   6  22
TORSDOF 8
ENDMDL
