MODEL 1
REMARK VINA RESULT:    -5.482      0.000      0.000
REMARK INTER + INTRA:          -9.013
REMARK INTER:                  -8.045
REMARK INTRA:                  -0.968
REMARK UNBOUND:                -0.968
REMARK  8 active torsions:
REMARK  status: ('A' for Active; 'I' for Inactive)
REMARK    1  A    between atoms: P_1  and  O3'_9 
REMARK    2  A    between atoms: PA_2  and  O5'_5 
REMARK    3  A    between atoms: PA_2  and  O3A_23 
REMARK    4  A    between atoms: PB_3  and  O3A_23 
REMARK    5  A    between atoms: C5'_4  and  O5'_5 
REMARK    6  A    between atoms: C5'_4  and  C4'_6 
REMARK    7  A    between atoms: C3'_8  and  O3'_9 
REMARK    8  A    between atoms: C1'_12  and  N9_31 
ROOT
HETATM    1  C4' PAP A 125      43.028  -5.958  41.449  1.00 30.66     0.178 C 
HETATM    2  O4' PAP A 125      42.420  -4.667  41.558  1.00 30.64    -0.331 OA
HETATM    3  C3' PAP A 125      44.131  -6.026  42.541  1.00 32.01     0.192 C 
HETATM    4  C2' PAP A 125      43.659  -4.939  43.498  1.00 31.03     0.231 C 
HETATM    5  O2' PAP A 125      44.746  -4.477  44.331  1.00 29.14    -0.216 OA
HETATM    6  C1' PAP A 125      43.267  -3.916  42.414  1.00 29.59     0.241 C 
ENDROOT
BRANCH   1   7
HETATM    7  C5' PAP A 125      41.921  -6.949  41.664  1.00 29.07     0.187 C 
BRANCH   7   8
HETATM    8  O5' PAP A 125      41.926  -7.778  40.518  1.00 30.13    -0.268 OA
BRANCH   8   9
HETATM    9  PA  PAP A 125      40.532  -8.317  39.872  1.00 31.22     0.419 P 
HETATM   10  O1A PAP A 125      40.388  -7.651  38.544  1.00 32.37    -0.624 OA
HETATM   11  O2A PAP A 125      40.523  -9.805  39.924  1.00 32.57    -0.624 OA
BRANCH   9  12
HETATM   12  O3A PAP A 125      39.304  -7.589  40.830  1.00 29.92    -0.173 OA
BRANCH  12  13
HETATM   13  PB  PAP A 125      38.035  -8.074  41.760  1.00 26.94     0.431 P 
HETATM   14  O1B PAP A 125      38.617  -8.384  43.081  1.00 24.20    -0.616 OA
HETATM   15  O2B PAP A 125      37.116  -6.886  41.742  1.00 26.86    -0.616 OA
HETATM   16  O3B PAP A 125      37.479  -9.257  41.061  1.00 28.16    -0.616 OA
ENDBRANCH  12  13
ENDBRANCH   9  12
ENDBRANCH   8   9
ENDBRANCH   7   8
ENDBRANCH   1   7
BRANCH   3  17
HETATM   17  O3' PAP A 125      45.419  -5.690  41.949  1.00 36.20    -0.261 OA
BRANCH  17  18
HETATM   18  P   PAP A 125      46.154  -6.725  40.808  1.00 39.68     0.423 P 
HETATM   19  O1  PAP A 125      47.588  -6.511  41.128  1.00 40.50    -0.617 OA
HETATM   20  O2  PAP A 125      45.615  -8.056  41.185  1.00 39.38    -0.617 OA
HETATM   21  O3  PAP A 125      45.685  -6.267  39.465  1.00 40.59    -0.617 OA
ENDBRANCH  17  18
ENDBRANCH   3  17
BRANCH   6  22
HETATM   22  N9  PAP A 125      42.430  -2.773  42.846  1.00 29.22    -0.270 N 
HETATM   23  C4  PAP A 125      41.657  -1.846  42.097  1.00 29.28     0.170 A 
HETATM   24  N3  PAP A 125      41.483  -1.735  40.733  1.00 29.66    -0.205 NA
HETATM   25  C5  PAP A 125      41.080  -1.007  43.044  1.00 29.93     0.155 A 
HETATM   26  C2  PAP A 125      40.680  -0.685  40.437  1.00 28.29     0.202 A 
HETATM   27  N1  PAP A 125      40.064   0.205  41.230  1.00 27.66    -0.202 NA
HETATM   28  C6  PAP A 125      40.225   0.079  42.573  1.00 28.82     0.206 A 
HETATM   29  N6  PAP A 125      39.555   0.889  43.415  1.00 26.39    -0.125 N 
HETATM   30  N7  PAP A 125      41.491  -1.406  44.357  1.00 30.19    -0.219 NA
HETATM   31  C8  PAP A 125      42.268  -2.431  44.165  1.00 28.80     0.182 A 
ENDBRANCH   6  22
TORSDOF 8
ENDMDL
MODEL 2
REMARK VINA RESULT:    -5.397     11.184     13.599
REMARK INTER + INTRA:          -8.888
REMARK INTER:                  -7.285
REMARK INTRA:                  -1.603
REMARK UNBOUND:                -0.968
REMARK  8 active torsions:
REMARK  status: ('A' for Active; 'I' for Inactive)
REMARK    1  A    between atoms: P_1  and  O3'_9 
REMARK    2  A    between atoms: PA_2  and  O5'_5 
REMARK    3  A    between atoms: PA_2  and  O3A_23 
REMARK    4  A    between atoms: PB_3  and  O3A_23 
REMARK    5  A    between atoms: C5'_4  and  O5'_5 
REMARK    6  A    between atoms: C5'_4  and  C4'_6 
REMARK    7  A    between atoms: C3'_8  and  O3'_9 
REMARK    8  A    between atoms: C1'_12  and  N9_31 
ROOT
HETATM    1  C4' PAP A 125      41.885 -10.355  32.301  1.00 30.66     0.178 C 
HETATM    2  O4' PAP A 125      42.193  -9.092  31.703  1.00 30.64    -0.331 OA
HETATM    3  C3' PAP A 125      41.169 -11.201  31.213  1.00 32.01     0.192 C 
HETATM    4  C2' PAP A 125      41.629 -10.493  29.945  1.00 31.03     0.231 C 
HETATM    5  O2' PAP A 125      40.738 -10.776  28.843  1.00 29.14    -0.216 OA
HETATM    6  C1' PAP A 125      41.468  -9.057  30.484  1.00 29.59     0.241 C 
ENDROOT
BRANCH   1   7
HETATM    7  C5' PAP A 125      43.202 -10.935  32.730  1.00 29.07     0.187 C 
BRANCH   7   8
HETATM    8  O5' PAP A 125      44.189 -10.130  32.116  1.00 30.13    -0.268 OA
BRANCH   8   9
HETATM    9  PA  PAP A 125      45.424 -10.803  31.296  1.00 31.22     0.419 P 
HETATM   10  O1A PAP A 125      46.607 -10.783  32.207  1.00 32.37    -0.624 OA
HETATM   11  O2A PAP A 125      44.977 -12.111  30.744  1.00 32.57    -0.624 OA
BRANCH   9  12
HETATM   12  O3A PAP A 125      45.821  -9.647  30.087  1.00 29.92    -0.173 OA
BRANCH  12  13
HETATM   13  PB  PAP A 125      46.861  -9.518  28.818  1.00 26.94     0.431 P 
HETATM   14  O1B PAP A 125      47.382  -8.137  28.881  1.00 24.20    -0.616 OA
HETATM   15  O2B PAP A 125      47.880 -10.586  29.093  1.00 26.86    -0.616 OA
HETATM   16  O3B PAP A 125      46.034  -9.789  27.618  1.00 28.16    -0.616 OA
ENDBRANCH  12  13
ENDBRANCH   9  12
ENDBRANCH   8   9
ENDBRANCH   7   8
ENDBRANCH   1   7
BRANCH   3  17
HETATM   17  O3' PAP A 125      39.727 -11.094  31.388  1.00 36.20    -0.261 OA
BRANCH  17  18
HETATM   18  P   PAP A 125      38.797 -12.452  31.839  1.00 39.68     0.423 P 
HETATM   19  O1  PAP A 125      38.432 -12.991  30.506  1.00 40.50    -0.617 OA
HETATM   20  O2  PAP A 125      39.770 -13.270  32.606  1.00 39.38    -0.617 OA
HETATM   21  O3  PAP A 125      37.681 -11.931  32.687  1.00 40.59    -0.617 OA
ENDBRANCH  17  18
ENDBRANCH   3  17
BRANCH   6  22
HETATM   22  N9  PAP A 125      42.113  -7.976  29.704  1.00 29.22    -0.270 N 
HETATM   23  C4  PAP A 125      41.927  -6.568  29.732  1.00 29.28     0.170 A 
HETATM   24  N3  PAP A 125      41.066  -5.801  30.491  1.00 29.66    -0.205 NA
HETATM   25  C5  PAP A 125      42.817  -6.067  28.788  1.00 29.93     0.155 A 
HETATM   26  C2  PAP A 125      41.194  -4.489  30.181  1.00 28.29     0.202 A 
HETATM   27  N1  PAP A 125      41.992  -3.865  29.301  1.00 27.66    -0.202 NA
HETATM   28  C6  PAP A 125      42.851  -4.623  28.570  1.00 28.82     0.206 A 
HETATM   29  N6  PAP A 125      43.735  -4.037  27.741  1.00 26.39    -0.125 N 
HETATM   30  N7  PAP A 125      43.538  -7.146  28.184  1.00 30.19    -0.219 NA
HETATM   31  C8  PAP A 125      43.080  -8.217  28.762  1.00 28.80     0.182 A 
ENDBRANCH   6  22
TORSDOF 8
ENDMDL
MODEL 3
REMARK VINA RESULT:    -5.375     10.762     13.082
REMARK INTER + INTRA:          -8.856
REMARK INTER:                  -7.472
REMARK INTRA:                  -1.384
REMARK UNBOUND:                -0.968
REMARK  8 active torsions:
REMARK  status: ('A' for Active; 'I' for Inactive)
REMARK    1  A    between atoms: P_1  and  O3'_9 
REMARK    2  A    between atoms: PA_2  and  O5'_5 
REMARK    3  A    between atoms: PA_2  and  O3A_23 
REMARK    4  A    between atoms: PB_3  and  O3A_23 
REMARK    5  A    between atoms: C5'_4  and  O5'_5 
REMARK    6  A    between atoms: C5'_4  and  C4'_6 
REMARK    7  A    between atoms: C3'_8  and  O3'_9 
REMARK    8  A    between atoms: C1'_12  and  N9_31 
ROOT
HETATM    1  C4' PAP A 125      41.885 -10.456  32.241  1.00 30.66     0.178 C 
HETATM    2  O4' PAP A 125      42.210  -9.186  31.668  1.00 30.64    -0.331 OA
HETATM    3  C3' PAP A 125      41.193 -11.286  31.125  1.00 32.01     0.192 C 
HETATM    4  C2' PAP A 125      41.685 -10.560  29.878  1.00 31.03     0.231 C 
HETATM    5  O2' PAP A 125      40.819 -10.826  28.752  1.00 29.14    -0.216 OA
HETATM    6  C1' PAP A 125      41.513  -9.132  30.433  1.00 29.59     0.241 C 
ENDROOT
BRANCH   1   7
HETATM    7  C5' PAP A 125      43.190 -11.045  32.693  1.00 29.07     0.187 C 
BRANCH   7   8
HETATM    8  O5' PAP A 125      44.183 -10.125  32.285  1.00 30.13    -0.268 OA
BRANCH   8   9
HETATM    9  PA  PAP A 125      45.602 -10.643  31.677  1.00 31.22     0.419 P 
HETATM   10  O1A PAP A 125      45.555 -12.135  31.688  1.00 32.37    -0.624 OA
HETATM   11  O2A PAP A 125      45.851  -9.951  30.383  1.00 32.57    -0.624 OA
BRANCH   9  12
HETATM   12  O3A PAP A 125      46.756 -10.263  32.894  1.00 29.92    -0.173 OA
BRANCH  12  13
HETATM   13  PB  PAP A 125      47.298 -10.912  34.306  1.00 26.94     0.431 P 
HETATM   14  O1B PAP A 125      46.097 -11.461  34.967  1.00 24.20    -0.616 OA
HETATM   15  O2B PAP A 125      48.292 -11.945  33.856  1.00 26.86    -0.616 OA
HETATM   16  O3B PAP A 125      47.916  -9.780  35.035  1.00 28.16    -0.616 OA
ENDBRANCH  12  13
ENDBRANCH   9  12
ENDBRANCH   8   9
ENDBRANCH   7   8
ENDBRANCH   1   7
BRANCH   3  17
HETATM   17  O3' PAP A 125      39.748 -11.177  31.267  1.00 36.20    -0.261 OA
BRANCH  17  18
HETATM   18  P   PAP A 125      38.822 -12.498  31.827  1.00 39.68     0.423 P 
HETATM   19  O1  PAP A 125      37.847 -11.800  32.700  1.00 40.50    -0.617 OA
HETATM   20  O2  PAP A 125      38.260 -13.055  30.571  1.00 39.38    -0.617 OA
HETATM   21  O3  PAP A 125      39.784 -13.428  32.495  1.00 40.59    -0.617 OA
ENDBRANCH  17  18
ENDBRANCH   3  17
BRANCH   6  22
HETATM   22  N9  PAP A 125      42.178  -8.042  29.685  1.00 29.22    -0.270 N 
HETATM   23  C4  PAP A 125      41.964  -6.638  29.695  1.00 29.28     0.170 A 
HETATM   24  N3  PAP A 125      41.047  -5.885  30.401  1.00 29.66    -0.205 NA
HETATM   25  C5  PAP A 125      42.894  -6.123  28.798  1.00 29.93     0.155 A 
HETATM   26  C2  PAP A 125      41.166  -4.572  30.091  1.00 28.29     0.202 A 
HETATM   27  N1  PAP A 125      41.998  -3.935  29.254  1.00 27.66    -0.202 NA
HETATM   28  C6  PAP A 125      42.911  -4.680  28.575  1.00 28.82     0.206 A 
HETATM   29  N6  PAP A 125      43.828  -4.079  27.792  1.00 26.39    -0.125 N 
HETATM   30  N7  PAP A 125      43.669  -7.190  28.240  1.00 30.19    -0.219 NA
HETATM   31  C8  PAP A 125      43.201  -8.268  28.798  1.00 28.80     0.182 A 
ENDBRANCH   6  22
TORSDOF 8
ENDMDL
MODEL 4
REMARK VINA RESULT:    -5.346      2.242      3.940
REMARK INTER + INTRA:          -8.814
REMARK INTER:                  -7.797
REMARK INTRA:                  -1.017
REMARK UNBOUND:                -0.968
REMARK  8 active torsions:
REMARK  status: ('A' for Active; 'I' for Inactive)
REMARK    1  A    between atoms: P_1  and  O3'_9 
REMARK    2  A    between atoms: PA_2  and  O5'_5 
REMARK    3  A    between atoms: PA_2  and  O3A_23 
REMARK    4  A    between atoms: PB_3  and  O3A_23 
REMARK    5  A    between atoms: C5'_4  and  O5'_5 
REMARK    6  A    between atoms: C5'_4  and  C4'_6 
REMARK    7  A    between atoms: C3'_8  and  O3'_9 
REMARK    8  A    between atoms: C1'_12  and  N9_31 
ROOT
HETATM    1  C4' PAP A 125      44.003  -5.318  42.601  1.00 30.66     0.178 C 
HETATM    2  O4' PAP A 125      43.259  -4.104  42.454  1.00 30.64    -0.331 OA
HETATM    3  C3' PAP A 125      44.481  -5.373  44.077  1.00 32.01     0.192 C 
HETATM    4  C2' PAP A 125      43.492  -4.420  44.738  1.00 31.03     0.231 C 
HETATM    5  O2' PAP A 125      44.009  -3.930  45.995  1.00 29.14    -0.216 OA
HETATM    6  C1' PAP A 125      43.519  -3.351  43.628  1.00 29.59     0.241 C 
ENDROOT
BRANCH   1   7
HETATM    7  C5' PAP A 125      43.052  -6.424  42.245  1.00 29.07     0.187 C 
BRANCH   7   8
HETATM    8  O5' PAP A 125      42.822  -6.294  40.855  1.00 30.13    -0.268 OA
BRANCH   8   9
HETATM    9  PA  PAP A 125      42.812  -7.602  39.885  1.00 31.22     0.419 P 
HETATM   10  O1A PAP A 125      42.582  -8.787  40.764  1.00 32.37    -0.624 OA
HETATM   11  O2A PAP A 125      41.868  -7.359  38.761  1.00 32.57    -0.624 OA
BRANCH   9  12
HETATM   12  O3A PAP A 125      44.447  -7.779  39.383  1.00 29.92    -0.173 OA
BRANCH  12  13
HETATM   13  PB  PAP A 125      45.947  -7.665  40.052  1.00 26.94     0.431 P 
HETATM   14  O1B PAP A 125      46.824  -8.471  39.178  1.00 24.20    -0.616 OA
HETATM   15  O2B PAP A 125      46.227  -6.190  40.031  1.00 26.86    -0.616 OA
HETATM   16  O3B PAP A 125      45.798  -8.216  41.420  1.00 28.16    -0.616 OA
ENDBRANCH  12  13
ENDBRANCH   9  12
ENDBRANCH   8   9
ENDBRANCH   7   8
ENDBRANCH   1   7
BRANCH   3  17
HETATM   17  O3' PAP A 125      45.844  -4.868  44.164  1.00 36.20    -0.261 OA
BRANCH  17  18
HETATM   18  P   PAP A 125      47.123  -5.882  44.664  1.00 39.68     0.423 P 
HETATM   19  O1  PAP A 125      47.721  -6.236  43.353  1.00 40.50    -0.617 OA
HETATM   20  O2  PAP A 125      47.942  -4.977  45.509  1.00 39.38    -0.617 OA
HETATM   21  O3  PAP A 125      46.494  -6.994  45.443  1.00 40.59    -0.617 OA
ENDBRANCH  17  18
ENDBRANCH   3  17
BRANCH   6  22
HETATM   22  N9  PAP A 125      42.443  -2.334  43.656  1.00 29.22    -0.270 N 
HETATM   23  C4  PAP A 125      41.748  -1.682  42.603  1.00 29.28     0.170 A 
HETATM   24  N3  PAP A 125      41.895  -1.800  41.235  1.00 29.66    -0.205 NA
HETATM   25  C5  PAP A 125      40.841  -0.838  43.236  1.00 29.93     0.155 A 
HETATM   26  C2  PAP A 125      41.043  -0.970  40.589  1.00 28.29     0.202 A 
HETATM   27  N1  PAP A 125      40.129  -0.106  41.056  1.00 27.66    -0.202 NA
HETATM   28  C6  PAP A 125      39.976  -0.008  42.403  1.00 28.82     0.206 A 
HETATM   29  N6  PAP A 125      39.010   0.776  42.919  1.00 26.39    -0.125 N 
HETATM   30  N7  PAP A 125      40.975  -0.963  44.656  1.00 30.19    -0.219 NA
HETATM   31  C8  PAP A 125      41.918  -1.843  44.825  1.00 28.80     0.182 A 
ENDBRANCH   6  22
TORSDOF 8
ENDMDL
MODEL 5
REMARK VINA RESULT:    -5.089      7.166      9.260
REMARK INTER + INTRA:          -8.437
REMARK INTER:                  -6.975
REMARK INTRA:                  -1.463
REMARK UNBOUND:                -0.968
REMARK  8 active torsions:
REMARK  status: ('A' for Active; 'I' for Inactive)
REMARK    1  A    between atoms: P_1  and  O3'_9 
REMARK    2  A    between atoms: PA_2  and  O5'_5 
REMARK    3  A    between atoms: PA_2  and  O3A_23 
REMARK    4  A    between atoms: PB_3  and  O3A_23 
REMARK    5  A    between atoms: C5'_4  and  O5'_5 
REMARK    6  A    between atoms: C5'_4  and  C4'_6 
REMARK    7  A    between atoms: C3'_8  and  O3'_9 
REMARK    8  A    between atoms: C1'_12  and  N9_31 
ROOT
HETATM    1  C4' PAP A 125      39.772   2.528  44.098  1.00 30.66     0.178 C 
HETATM    2  O4' PAP A 125      40.287   3.843  43.867  1.00 30.64    -0.331 OA
HETATM    3  C3' PAP A 125      40.920   1.705  44.744  1.00 32.01     0.192 C 
HETATM    4  C2' PAP A 125      41.804   2.820  45.290  1.00 31.03     0.231 C 
HETATM    5  O2' PAP A 125      43.153   2.349  45.507  1.00 29.14    -0.216 OA
HETATM    6  C1' PAP A 125      41.689   3.745  44.062  1.00 29.59     0.241 C 
ENDROOT
BRANCH   1   7
HETATM    7  C5' PAP A 125      38.590   2.707  45.006  1.00 29.07     0.187 C 
BRANCH   7   8
HETATM    8  O5' PAP A 125      38.465   1.488  45.713  1.00 30.13    -0.268 OA
BRANCH   8   9
HETATM    9  PA  PAP A 125      37.213   1.234  46.722  1.00 31.22     0.419 P 
HETATM   10  O1A PAP A 125      37.741   0.437  47.869  1.00 32.37    -0.624 OA
HETATM   11  O2A PAP A 125      36.555   2.537  47.009  1.00 32.57    -0.624 OA
BRANCH   9  12
HETATM   12  O3A PAP A 125      36.202   0.123  45.885  1.00 29.92    -0.173 OA
BRANCH  12  13
HETATM   13  PB  PAP A 125      36.380  -1.214  44.942  1.00 26.94     0.431 P 
HETATM   14  O1B PAP A 125      36.996  -0.728  43.690  1.00 24.20    -0.616 OA
HETATM   15  O2B PAP A 125      37.259  -2.109  45.767  1.00 26.86    -0.616 OA
HETATM   16  O3B PAP A 125      35.006  -1.742  44.765  1.00 28.16    -0.616 OA
ENDBRANCH  12  13
ENDBRANCH   9  12
ENDBRANCH   8   9
ENDBRANCH   7   8
ENDBRANCH   1   7
BRANCH   3  17
HETATM   17  O3' PAP A 125      41.607   0.940  43.713  1.00 36.20    -0.261 OA
BRANCH  17  18
HETATM   18  P   PAP A 125      40.992  -0.562  43.183  1.00 39.68     0.423 P 
HETATM   19  O1  PAP A 125      42.253  -1.280  42.872  1.00 40.50    -0.617 OA
HETATM   20  O2  PAP A 125      40.264  -1.054  44.380  1.00 39.38    -0.617 OA
HETATM   21  O3  PAP A 125      40.085  -0.261  42.034  1.00 40.59    -0.617 OA
ENDBRANCH  17  18
ENDBRANCH   3  17
BRANCH   6  22
HETATM   22  N9  PAP A 125      42.133   5.146  44.238  1.00 29.22    -0.270 N 
HETATM   23  C4  PAP A 125      43.435   5.712  44.299  1.00 29.28     0.170 A 
HETATM   24  N3  PAP A 125      44.671   5.102  44.230  1.00 29.66    -0.205 NA
HETATM   25  C5  PAP A 125      43.229   7.077  44.464  1.00 29.93     0.155 A 
HETATM   26  C2  PAP A 125      45.663   6.015  44.359  1.00 28.29     0.202 A 
HETATM   27  N1  PAP A 125      45.620   7.345  44.528  1.00 27.66    -0.202 NA
HETATM   28  C6  PAP A 125      44.400   7.942  44.577  1.00 28.82     0.206 A 
HETATM   29  N6  PAP A 125      44.305   9.283  44.653  1.00 26.39    -0.125 N 
HETATM   30  N7  PAP A 125      41.824   7.352  44.507  1.00 30.19    -0.219 NA
HETATM   31  C8  PAP A 125      41.254   6.191  44.371  1.00 28.80     0.182 A 
ENDBRANCH   6  22
TORSDOF 8
ENDMDL
MODEL 6
REMARK VINA RESULT:    -5.055     11.384     13.214
REMARK INTER + INTRA:          -8.386
REMARK INTER:                  -6.931
REMARK INTRA:                  -1.455
REMARK UNBOUND:                -0.968
REMARK  8 active torsions:
REMARK  status: ('A' for Active; 'I' for Inactive)
REMARK    1  A    between atoms: P_1  and  O3'_9 
REMARK    2  A    between atoms: PA_2  and  O5'_5 
REMARK    3  A    between atoms: PA_2  and  O3A_23 
REMARK    4  A    between atoms: PB_3  and  O3A_23 
REMARK    5  A    between atoms: C5'_4  and  O5'_5 
REMARK    6  A    between atoms: C5'_4  and  C4'_6 
REMARK    7  A    between atoms: C3'_8  and  O3'_9 
REMARK    8  A    between atoms: C1'_12  and  N9_31 
ROOT
HETATM    1  C4' PAP A 125      41.198 -10.480  30.122  1.00 30.66     0.178 C 
HETATM    2  O4' PAP A 125      41.315  -9.227  29.441  1.00 30.64    -0.331 OA
HETATM    3  C3' PAP A 125      42.641 -11.018  30.320  1.00 32.01     0.192 C 
HETATM    4  C2' PAP A 125      43.450  -9.733  30.187  1.00 31.03     0.231 C 
HETATM    5  O2' PAP A 125      44.826 -10.022  29.854  1.00 29.14    -0.216 OA
HETATM    6  C1' PAP A 125      42.660  -9.157  28.995  1.00 29.59     0.241 C 
ENDROOT
BRANCH   1   7
HETATM    7  C5' PAP A 125      40.497 -10.178  31.415  1.00 29.07     0.187 C 
BRANCH   7   8
HETATM    8  O5' PAP A 125      40.729 -11.300  32.244  1.00 30.13    -0.268 OA
BRANCH   8   9
HETATM    9  PA  PAP A 125      39.505 -12.278  32.686  1.00 31.22     0.419 P 
HETATM   10  O1A PAP A 125      39.845 -12.809  34.038  1.00 32.37    -0.624 OA
HETATM   11  O2A PAP A 125      38.220 -11.547  32.514  1.00 32.57    -0.624 OA
BRANCH   9  12
HETATM   12  O3A PAP A 125      39.657 -13.650  31.659  1.00 29.92    -0.173 OA
BRANCH  12  13
HETATM   13  PB  PAP A 125      38.999 -14.200  30.254  1.00 26.94     0.431 P 
HETATM   14  O1B PAP A 125      37.545 -14.265  30.505  1.00 24.20    -0.616 OA
HETATM   15  O2B PAP A 125      39.416 -13.167  29.247  1.00 26.86    -0.616 OA
HETATM   16  O3B PAP A 125      39.626 -15.524  30.031  1.00 28.16    -0.616 OA
ENDBRANCH  12  13
ENDBRANCH   9  12
ENDBRANCH   8   9
ENDBRANCH   7   8
ENDBRANCH   1   7
BRANCH   3  17
HETATM   17  O3' PAP A 125      42.958 -11.957  29.252  1.00 36.20    -0.261 OA
BRANCH  17  18
HETATM   18  P   PAP A 125      43.307 -13.592  29.600  1.00 39.68     0.423 P 
HETATM   19  O1  PAP A 125      42.838 -13.680  31.006  1.00 40.50    -0.617 OA
HETATM   20  O2  PAP A 125      42.474 -14.319  28.610  1.00 39.38    -0.617 OA
HETATM   21  O3  PAP A 125      44.773 -13.765  29.365  1.00 40.59    -0.617 OA
ENDBRANCH  17  18
ENDBRANCH   3  17
BRANCH   6  22
HETATM   22  N9  PAP A 125      42.870  -7.725  28.686  1.00 29.22    -0.270 N 
HETATM   23  C4  PAP A 125      42.339  -6.553  29.288  1.00 29.28     0.170 A 
HETATM   24  N3  PAP A 125      41.448  -6.418  30.333  1.00 29.66    -0.205 NA
HETATM   25  C5  PAP A 125      42.903  -5.496  28.582  1.00 29.93     0.155 A 
HETATM   26  C2  PAP A 125      41.184  -5.111  30.572  1.00 28.29     0.202 A 
HETATM   27  N1  PAP A 125      41.641  -3.997  29.980  1.00 27.66    -0.202 NA
HETATM   28  C6  PAP A 125      42.532  -4.136  28.963  1.00 28.82     0.206 A 
HETATM   29  N6  PAP A 125      43.089  -3.048  28.397  1.00 26.39    -0.125 N 
HETATM   30  N7  PAP A 125      43.767  -6.005  27.559  1.00 30.19    -0.219 NA
HETATM   31  C8  PAP A 125      43.698  -7.298  27.679  1.00 28.80     0.182 A 
ENDBRANCH   6  22
TORSDOF 8
ENDMDL
MODEL 7
REMARK VINA RESULT:    -4.999     15.280     17.358
REMARK INTER + INTRA:          -8.304
REMARK INTER:                  -6.916
REMARK INTRA:                  -1.389
REMARK UNBOUND:                -0.968
REMARK  8 active torsions:
REMARK  status: ('A' for Active; 'I' for Inactive)
REMARK    1  A    between atoms: P_1  and  O3'_9 
REMARK    2  A    between atoms: PA_2  and  O5'_5 
REMARK    3  A    between atoms: PA_2  and  O3A_23 
REMARK    4  A    between atoms: PB_3  and  O3A_23 
REMARK    5  A    between atoms: C5'_4  and  O5'_5 
REMARK    6  A    between atoms: C5'_4  and  C4'_6 
REMARK    7  A    between atoms: C3'_8  and  O3'_9 
REMARK    8  A    between atoms: C1'_12  and  N9_31 
ROOT
HETATM    1  C4' PAP A 125      48.003   8.202  34.623  1.00 30.66     0.178 C 
HETATM    2  O4' PAP A 125      48.040   6.828  35.022  1.00 30.64    -0.331 OA
HETATM    3  C3' PAP A 125      49.448   8.583  34.201  1.00 32.01     0.192 C 
HETATM    4  C2' PAP A 125      50.038   7.209  33.912  1.00 31.03     0.231 C 
HETATM    5  O2' PAP A 125      51.481   7.245  33.968  1.00 29.14    -0.216 OA
HETATM    6  C1' PAP A 125      49.415   6.497  35.129  1.00 29.59     0.241 C 
ENDROOT
BRANCH   1   7
HETATM    7  C5' PAP A 125      47.018   8.271  33.492  1.00 29.07     0.187 C 
BRANCH   7   8
HETATM    8  O5' PAP A 125      46.188   9.379  33.778  1.00 30.13    -0.268 OA
BRANCH   8   9
HETATM    9  PA  PAP A 125      46.144  10.669  32.785  1.00 31.22     0.419 P 
HETATM   10  O1A PAP A 125      45.457  11.763  33.532  1.00 32.37    -0.624 OA
HETATM   11  O2A PAP A 125      47.516  10.919  32.263  1.00 32.57    -0.624 OA
BRANCH   9  12
HETATM   12  O3A PAP A 125      45.014  10.235  31.564  1.00 29.92    -0.173 OA
BRANCH  12  13
HETATM   13  PB  PAP A 125      44.793   9.011  30.486  1.00 26.94     0.431 P 
HETATM   14  O1B PAP A 125      46.142   8.700  29.970  1.00 24.20    -0.616 OA
HETATM   15  O2B PAP A 125      44.173   7.923  31.317  1.00 26.86    -0.616 OA
HETATM   16  O3B PAP A 125      43.875   9.564  29.463  1.00 28.16    -0.616 OA
ENDBRANCH  12  13
ENDBRANCH   9  12
ENDBRANCH   8   9
ENDBRANCH   7   8
ENDBRANCH   1   7
BRANCH   3  17
HETATM   17  O3' PAP A 125      50.124   9.227  35.319  1.00 36.20    -0.261 OA
BRANCH  17  18
HETATM   18  P   PAP A 125      50.612  10.860  35.223  1.00 39.68     0.423 P 
HETATM   19  O1  PAP A 125      51.482  10.817  34.021  1.00 40.50    -0.617 OA
HETATM   20  O2  PAP A 125      49.322  11.573  35.043  1.00 39.38    -0.617 OA
HETATM   21  O3  PAP A 125      51.274  11.176  36.526  1.00 40.59    -0.617 OA
ENDBRANCH  17  18
ENDBRANCH   3  17
BRANCH   6  22
HETATM   22  N9  PAP A 125      49.437   5.016  35.119  1.00 29.22    -0.270 N 
HETATM   23  C4  PAP A 125      49.044   4.084  34.123  1.00 29.28     0.170 A 
HETATM   24  N3  PAP A 125      48.502   4.298  32.871  1.00 29.66    -0.205 NA
HETATM   25  C5  PAP A 125      49.306   2.834  34.673  1.00 29.93     0.155 A 
HETATM   26  C2  PAP A 125      48.247   3.121  32.253  1.00 28.29     0.202 A 
HETATM   27  N1  PAP A 125      48.437   1.855  32.653  1.00 27.66    -0.202 NA
HETATM   28  C6  PAP A 125      48.988   1.651  33.879  1.00 28.82     0.206 A 
HETATM   29  N6  PAP A 125      49.283   0.402  34.289  1.00 26.39    -0.125 N 
HETATM   30  N7  PAP A 125      49.850   2.990  35.989  1.00 30.19    -0.219 NA
HETATM   31  C8  PAP A 125      49.897   4.275  36.179  1.00 28.80     0.182 A 
ENDBRANCH   6  22
TORSDOF 8
ENDMDL
MODEL 8
REMARK VINA RESULT:    -4.922     14.098     16.104
REMARK INTER + INTRA:          -8.192
REMARK INTER:                  -6.647
REMARK INTRA:                  -1.545
REMARK UNBOUND:                -0.968
REMARK  8 active torsions:
REMARK  status: ('A' for Active; 'I' for Inactive)
REMARK    1  A    between atoms: P_1  and  O3'_9 
REMARK    2  A    between atoms: PA_2  and  O5'_5 
REMARK    3  A    between atoms: PA_2  and  O3A_23 
REMARK    4  A    between atoms: PB_3  and  O3A_23 
REMARK    5  A    between atoms: C5'_4  and  O5'_5 
REMARK    6  A    between atoms: C5'_4  and  C4'_6 
REMARK    7  A    between atoms: C3'_8  and  O3'_9 
REMARK    8  A    between atoms: C1'_12  and  N9_31 
ROOT
HETATM    1  C4' PAP A 125      49.587   5.484  33.141  1.00 30.66     0.178 C 
HETATM    2  O4' PAP A 125      50.361   6.247  34.073  1.00 30.64    -0.331 OA
HETATM    3  C3' PAP A 125      49.098   4.219  33.898  1.00 32.01     0.192 C 
HETATM    4  C2' PAP A 125      49.222   4.680  35.345  1.00 31.03     0.231 C 
HETATM    5  O2' PAP A 125      49.290   3.549  36.242  1.00 29.14    -0.216 OA
HETATM    6  C1' PAP A 125      50.581   5.390  35.181  1.00 29.59     0.241 C 
ENDROOT
BRANCH   1   7
HETATM    7  C5' PAP A 125      48.466   6.385  32.709  1.00 29.07     0.187 C 
BRANCH   7   8
HETATM    8  O5' PAP A 125      48.747   7.645  33.287  1.00 30.13    -0.268 OA
BRANCH   8   9
HETATM    9  PA  PAP A 125      47.600   8.463  34.102  1.00 31.22     0.419 P 
HETATM   10  O1A PAP A 125      47.284   7.662  35.321  1.00 32.37    -0.624 OA
HETATM   11  O2A PAP A 125      48.048   9.872  34.276  1.00 32.57    -0.624 OA
BRANCH   9  12
HETATM   12  O3A PAP A 125      46.188   8.306  33.134  1.00 29.92    -0.173 OA
BRANCH  12  13
HETATM   13  PB  PAP A 125      45.631   8.868  31.691  1.00 26.94     0.431 P 
HETATM   14  O1B PAP A 125      44.514   7.971  31.329  1.00 24.20    -0.616 OA
HETATM   15  O2B PAP A 125      45.224  10.281  32.000  1.00 26.86    -0.616 OA
HETATM   16  O3B PAP A 125      46.790   8.778  30.772  1.00 28.16    -0.616 OA
ENDBRANCH  12  13
ENDBRANCH   9  12
ENDBRANCH   8   9
ENDBRANCH   7   8
ENDBRANCH   1   7
BRANCH   3  17
HETATM   17  O3' PAP A 125      49.998   3.109  33.615  1.00 36.20    -0.261 OA
BRANCH  17  18
HETATM   18  P   PAP A 125      49.399   1.630  33.008  1.00 39.68     0.423 P 
HETATM   19  O1  PAP A 125      48.808   1.047  34.237  1.00 40.50    -0.617 OA
HETATM   20  O2  PAP A 125      48.419   2.074  31.984  1.00 39.38    -0.617 OA
HETATM   21  O3  PAP A 125      50.572   0.915  32.417  1.00 40.59    -0.617 OA
ENDBRANCH  17  18
ENDBRANCH   3  17
BRANCH   6  22
HETATM   22  N9  PAP A 125      50.993   6.301  36.273  1.00 29.22    -0.270 N 
HETATM   23  C4  PAP A 125      51.790   6.074  37.426  1.00 29.28     0.170 A 
HETATM   24  N3  PAP A 125      52.398   4.918  37.872  1.00 29.66    -0.205 NA
HETATM   25  C5  PAP A 125      51.843   7.302  38.077  1.00 29.93     0.155 A 
HETATM   26  C2  PAP A 125      53.045   5.137  39.041  1.00 28.29     0.202 A 
HETATM   27  N1  PAP A 125      53.177   6.248  39.781  1.00 27.66    -0.202 NA
HETATM   28  C6  PAP A 125      52.592   7.388  39.328  1.00 28.82     0.206 A 
HETATM   29  N6  PAP A 125      52.771   8.549  39.986  1.00 26.39    -0.125 N 
HETATM   30  N7  PAP A 125      51.088   8.271  37.341  1.00 30.19    -0.219 NA
HETATM   31  C8  PAP A 125      50.627   7.623  36.313  1.00 28.80     0.182 A 
ENDBRANCH   6  22
TORSDOF 8
ENDMDL
MODEL 9
REMARK VINA RESULT:    -4.919      7.110     10.185
REMARK INTER + INTRA:          -8.187
REMARK INTER:                  -7.186
REMARK INTRA:                  -1.002
REMARK UNBOUND:                -0.968
REMARK  8 active torsions:
REMARK  status: ('A' for Active; 'I' for Inactive)
REMARK    1  A    between atoms: P_1  and  O3'_9 
REMARK    2  A    between atoms: PA_2  and  O5'_5 
REMARK    3  A    between atoms: PA_2  and  O3A_23 
REMARK    4  A    between atoms: PB_3  and  O3A_23 
REMARK    5  A    between atoms: C5'_4  and  O5'_5 
REMARK    6  A    between atoms: C5'_4  and  C4'_6 
REMARK    7  A    between atoms: C3'_8  and  O3'_9 
REMARK    8  A    between atoms: C1'_12  and  N9_31 
ROOT
HETATM    1  C4' PAP A 125      41.807   0.726  44.195  1.00 30.66     0.178 C 
HETATM    2  O4' PAP A 125      42.577  -0.371  43.691  1.00 30.64    -0.331 OA
HETATM    3  C3' PAP A 125      40.884   0.151  45.304  1.00 32.01     0.192 C 
HETATM    4  C2' PAP A 125      41.625  -1.132  45.662  1.00 31.03     0.231 C 
HETATM    5  O2' PAP A 125      40.741  -2.074  46.310  1.00 29.14    -0.216 OA
HETATM    6  C1' PAP A 125      41.968  -1.540  44.215  1.00 29.59     0.241 C 
ENDROOT
BRANCH   1   7
HETATM    7  C5' PAP A 125      42.806   1.719  44.714  1.00 29.07     0.187 C 
BRANCH   7   8
HETATM    8  O5' PAP A 125      42.673   2.859  43.887  1.00 30.13    -0.268 OA
BRANCH   8   9
HETATM    9  PA  PAP A 125      42.070   4.252  44.476  1.00 31.22     0.419 P 
HETATM   10  O1A PAP A 125      40.911   4.619  43.610  1.00 32.37    -0.624 OA
HETATM   11  O2A PAP A 125      41.841   4.095  45.938  1.00 32.57    -0.624 OA
BRANCH   9  12
HETATM   12  O3A PAP A 125      43.259   5.433  44.089  1.00 29.92    -0.173 OA
BRANCH  12  13
HETATM   13  PB  PAP A 125      43.569   7.011  44.441  1.00 26.94     0.431 P 
HETATM   14  O1B PAP A 125      44.163   6.999  45.793  1.00 24.20    -0.616 OA
HETATM   15  O2B PAP A 125      44.508   7.433  43.347  1.00 26.86    -0.616 OA
HETATM   16  O3B PAP A 125      42.250   7.684  44.375  1.00 28.16    -0.616 OA
ENDBRANCH  12  13
ENDBRANCH   9  12
ENDBRANCH   8   9
ENDBRANCH   7   8
ENDBRANCH   1   7
BRANCH   3  17
HETATM   17  O3' PAP A 125      39.571  -0.134  44.740  1.00 36.20    -0.261 OA
BRANCH  17  18
HETATM   18  P   PAP A 125      38.650   1.100  44.003  1.00 39.68     0.423 P 
HETATM   19  O1  PAP A 125      37.289   0.514  44.089  1.00 40.50    -0.617 OA
HETATM   20  O2  PAP A 125      38.894   2.262  44.894  1.00 39.38    -0.617 OA
HETATM   21  O3  PAP A 125      39.220   1.286  42.634  1.00 40.59    -0.617 OA
ENDBRANCH  17  18
ENDBRANCH   3  17
BRANCH   6  22
HETATM   22  N9  PAP A 125      42.992  -2.595  44.045  1.00 29.22    -0.270 N 
HETATM   23  C4  PAP A 125      43.218  -3.514  42.986  1.00 29.28     0.170 A 
HETATM   24  N3  PAP A 125      42.522  -3.699  41.808  1.00 29.66    -0.205 NA
HETATM   25  C5  PAP A 125      44.330  -4.251  43.378  1.00 29.93     0.155 A 
HETATM   26  C2  PAP A 125      43.063  -4.711  41.088  1.00 28.29     0.202 A 
HETATM   27  N1  PAP A 125      44.115  -5.506  41.335  1.00 27.66    -0.202 NA
HETATM   28  C6  PAP A 125      44.807  -5.306  42.487  1.00 28.82     0.206 A 
HETATM   29  N6  PAP A 125      45.924  -6.016  42.738  1.00 26.39    -0.125 N 
HETATM   30  N7  PAP A 125      44.783  -3.798  44.659  1.00 30.19    -0.219 NA
HETATM   31  C8  PAP A 125      43.965  -2.842  44.982  1.00 28.80     0.182 A 
ENDBRANCH   6  22
TORSDOF 8
ENDMDL
