MODEL 1
REMARK VINA RESULT:    -7.730      0.000      0.000
REMARK INTER + INTRA:         -12.369
REMARK INTER:                 -10.668
REMARK INTRA:                  -1.702
REMARK UNBOUND:                -1.702
REMARK  7 active torsions:
REMARK  status: ('A' for Active; 'I' for Inactive)
REMARK    1  A    between atoms: S_2  and  N_15 
REMARK    2  A    between atoms: O_4  and  C_23 
REMARK    3  A    between atoms: N_12  and  CA_19 
REMARK       I    between atoms: N_12  and  C_24 
REMARK    4  A    between atoms: N_13  and  CA_25 
REMARK       I    between atoms: N_13  and  C_27 
REMARK       I    between atoms: N_14  and  C_27 
REMARK    5  A    between atoms: CA_18  and  C_23 
REMARK    6  A    between atoms: C_24  and  CA_25 
REMARK    7  A    between atoms: CA_25  and  C_26 
ROOT
HETATM    1  CA  MEZ     1       8.909 -30.350  -8.193  1.00  0.00     0.211 C 
ENDROOT
BRANCH   1   2
HETATM    2  N   MEZ     1       9.636 -29.129  -7.934  1.00  0.00    -0.325 N 
HETATM    3  C   MEZ     1      10.833 -28.825  -8.572  1.00  0.00     0.327 C 
HETATM    4  O   MEZ     1      11.365 -29.565  -9.402  1.00  0.00    -0.247 OA
HETATM    5  N   MEZ     1      11.392 -27.587  -8.176  1.00  0.00    -0.249 N 
HETATM    6  C   MEZ     1      12.700 -27.178  -8.689  1.00  0.00     0.159 C 
HETATM    7  C   MEZ     1      10.920 -26.630  -7.251  1.00  0.00     0.342 C 
HETATM    8  C   MEZ     1      12.888 -25.715  -8.295  1.00  0.00     0.167 C 
HETATM    9  N   MEZ     1      11.879 -25.569  -7.224  1.00  0.00    -0.225 N 
HETATM   10  O   MEZ     1       9.891 -26.654  -6.592  1.00  0.00    -0.245 OA
HETATM   11  H   MEZ     1       9.243 -28.464  -7.275  1.00  0.00     0.165 HD
BRANCH   9  12
HETATM   12  S   MEZ     1      11.676 -24.066  -6.481  1.00  0.00     0.232 S 
HETATM   13  O   MEZ     1      10.577 -23.354  -7.112  1.00  0.00    -0.206 OA
HETATM   14  O   MEZ     1      11.724 -24.225  -5.036  1.00  0.00    -0.206 OA
HETATM   15  C   MEZ     1      13.185 -23.270  -6.981  1.00  0.00     0.186 C 
ENDBRANCH   9  12
ENDBRANCH   1   2
BRANCH   1  16
HETATM   16  C   MEZ     1       9.054 -31.256  -6.977  1.00  0.00     0.245 C 
HETATM   17  O   MEZ     1       8.940 -32.480  -7.034  1.00  0.00    -0.271 OA
HETATM   18  N   MEZ     1       9.372 -30.556  -5.812  1.00  0.00    -0.344 N 
HETATM   19  H   MEZ     1       9.452 -29.544  -5.876  1.00  0.00     0.163 HD
BRANCH  18  20
HETATM   20  CA  MEZ     1       9.606 -31.212  -4.528  1.00  0.00     0.199 A 
HETATM   21  C   MEZ     1      10.393 -30.443  -3.458  1.00  0.00     0.160 A 
HETATM   22  S   MEZ     1      10.667 -28.659  -3.759  1.00  0.00    -0.135 SA
HETATM   23  N   MEZ     1       9.177 -30.463  -2.639  1.00  0.00    -0.219 NA
HETATM   24  C   MEZ     1       9.915 -28.225  -2.111  1.00  0.00     0.029 C 
HETATM   25  CA  MEZ     1       8.774 -29.254  -1.950  1.00  0.00     0.182 C 
HETATM   26  C   MEZ     1       9.373 -26.796  -2.172  1.00  0.00     0.029 C 
HETATM   27  C   MEZ     1      11.017 -28.325  -1.048  1.00  0.00     0.029 C 
HETATM   28  C   MEZ     1       8.417 -31.140  -3.549  1.00  0.00     0.227 A 
HETATM   29  O   MEZ     1       7.243 -31.425  -3.588  1.00  0.00    -0.277 OA
BRANCH  25  30
HETATM   30  C   MEZ     1       8.451 -29.636  -0.540  1.00  0.00     0.160 C 
HETATM   31  OXT MEZ     1       8.899 -30.612   0.043  1.00  0.00    -0.649 OA
BRANCH  30  32
HETATM   32  O   MEZ     1       7.588 -28.747   0.011  1.00  0.00    -0.775 OA
HETATM   33  H   MEZ     1       6.728 -28.732  -0.460  1.00  0.00     0.167 HD
ENDBRANCH  30  32
ENDBRANCH  25  30
ENDBRANCH  18  20
ENDBRANCH   1  16
BRANCH   1  34
HETATM   34  C   MEZ     1       7.459 -30.084  -8.524  1.00  0.00    -0.026 A 
HETATM   35  C   MEZ     1       6.668 -31.099  -9.061  1.00  0.00     0.010 A 
HETATM   36  C   MEZ     1       5.330 -30.854  -9.366  1.00  0.00     0.001 A 
HETATM   37  C   MEZ     1       4.782 -29.592  -9.136  1.00  0.00     0.000 A 
HETATM   38  C   MEZ     1       5.573 -28.577  -8.599  1.00  0.00     0.001 A 
HETATM   39  C   MEZ     1       6.912 -28.822  -8.293  1.00  0.00     0.010 A 
ENDBRANCH   1  34
TORSDOF 7
ENDMDL
