MODEL 1
REMARK VINA RESULT:    -6.361      0.000      0.000
REMARK INTER + INTRA:         -13.089
REMARK INTER:                 -10.080
REMARK INTRA:                  -3.009
REMARK UNBOUND:                -3.009
REMARK  10 active torsions:
REMARK  status: ('A' for Active; 'I' for Inactive)
REMARK    1  A    between atoms: N_5  and  C_13 
REMARK    2  A    between atoms: N_6  and  C_21 
REMARK    3  A    between atoms: N_7  and  C_18 
REMARK       I    between atoms: N_7  and  C_24 
REMARK    4  A    between atoms: C_13  and  C_15 
REMARK    5  A    between atoms: C_15  and  C_16 
REMARK    6  A    between atoms: C_16  and  C_17 
REMARK    7  A    between atoms: C_17  and  C_24 
REMARK    8  A    between atoms: C_17  and  C_25 
REMARK    9  A    between atoms: C_21  and  C_28 
REMARK   10  A    between atoms: C_25  and  C_30 
ROOT
HETATM    1  O   MK1     0      18.915  10.821 -23.841  0.00  0.00    -0.221 OA
HETATM    2  C   MK1     0      18.954  12.205 -23.166  0.00  0.00     0.178 C 
ENDROOT
BRANCH   2   3
HETATM    3  C   MK1     0      20.250  12.699 -22.497  0.00  0.00     0.135 C 
BRANCH   3   4
HETATM    4  N   MK1     0      20.521  12.379 -21.015  0.00  0.00    -0.339 N 
HETATM    5  C   MK1     0      21.590  13.171 -20.239  0.00  0.00     0.123 A 
HETATM    6  C   MK1     0      21.862  12.852 -18.757  0.00  0.00     0.108 A 
HETATM    7  C   MK1     0      22.389  14.283 -20.946  0.00  0.00     0.227 A 
HETATM    8  N   MK1     0      21.063  11.740 -18.051  0.00  0.00    -0.339 N 
HETATM    9  C   MK1     0      22.651  13.656 -18.728  0.00  0.00    -0.089 A 
HETATM   10  C   MK1     0      19.994  10.949 -18.826  0.00  0.00     0.126 A 
HETATM   11  C   MK1     0      19.723  11.268 -20.308  0.00  0.00     0.126 A 
HETATM   12  C   MK1     0      23.729  14.755 -18.689  0.00  0.00     0.134 A 
HETATM   13  N   MK1     0      23.458  15.075 -20.171  0.00  0.00    -0.237 NA
HETATM   14  C   MK1     0      24.808  15.854 -18.649  0.00  0.00     0.037 C 
HETATM   15  C   MK1     0      24.000  14.436 -17.206  0.00  0.00     0.037 C 
HETATM   16  O   MK1     0      22.117  14.602 -22.428  0.00  0.00    -0.168 OA
BRANCH   8  17
HETATM   17  C   MK1     0      21.335  11.421 -16.569  0.00  0.00     0.104 C 
BRANCH  17  18
HETATM   18  C   MK1     0      21.690   9.984 -16.143  0.00  0.00     0.046 A 
HETATM   19  C   MK1     0      21.037   9.369 -14.891  0.00  0.00     0.006 A 
HETATM   20  C   MK1     0      21.391   7.933 -14.464  0.00  0.00     0.026 A 
HETATM   21  C   MK1     0      22.399   7.111 -15.290  0.00  0.00     0.120 A 
HETATM   22  N   MK1     0      23.051   7.726 -16.542  0.00  0.00    -0.295 NA
HETATM   23  C   MK1     0      22.696   9.163 -16.968  0.00  0.00     0.122 A 
ENDBRANCH  17  18
ENDBRANCH   8  17
ENDBRANCH   3   4
ENDBRANCH   2   3
BRANCH   2  24
HETATM   24  C   MK1     0      17.698  13.094 -23.160  0.00  0.00     0.061 C 
BRANCH  24  25
HETATM   25  C   MK1     0      17.325  13.892 -21.896  0.00  0.00     0.002 C 
BRANCH  25  26
HETATM   26  C   MK1     0      17.507  15.421 -21.869  0.00  0.00     0.205 C 
HETATM   27  O   MK1     0      16.281  16.339 -21.712  0.00  0.00    -0.170 OA
HETATM   28  N   MK1     0      18.915  16.032 -21.998  0.00  0.00    -0.219 NA
BRANCH  28  29
HETATM   29  C   MK1     0      19.097  17.560 -21.971  0.00  0.00     0.100 A 
HETATM   30  C   MK1     0      19.572  18.430 -23.138  0.00  0.00     0.130 A 
HETATM   31  O   MK1     0      19.950  17.929 -24.544  0.00  0.00    -0.193 OA
HETATM   32  C   MK1     0      19.604  19.885 -22.664  0.00  0.00     0.077 A 
HETATM   33  C   MK1     0      19.150  19.920 -21.202  0.00  0.00    -0.040 A 
HETATM   34  C   MK1     0      18.835  18.475 -20.772  0.00  0.00    -0.010 A 
HETATM   35  C   MK1     0      18.980  21.076 -20.200  0.00  0.00     0.022 A 
HETATM   36  C   MK1     0      18.350  18.187 -19.339  0.00  0.00     0.027 A 
HETATM   37  C   MK1     0      18.179  19.344 -18.336  0.00  0.00     0.005 A 
HETATM   38  C   MK1     0      18.494  20.788 -18.766  0.00  0.00     0.005 A 
ENDBRANCH  28  29
ENDBRANCH  25  26
BRANCH  25  39
HETATM   39  C   MK1     0      16.769  13.161 -20.660  0.00  0.00     0.026 C 
BRANCH  39  40
HETATM   40  C   MK1     0      17.115  13.667 -19.247  0.00  0.00     0.004 A 
HETATM   41  C   MK1     0      18.429  14.430 -19.002  0.00  0.00     0.000 A 
HETATM   42  C   MK1     0      18.774  14.936 -17.589  0.00  0.00     0.000 A 
HETATM   43  C   MK1     0      17.805  14.678 -16.420  0.00  0.00     0.000 A 
HETATM   44  C   MK1     0      16.490  13.913 -16.665  0.00  0.00     0.000 A 
HETATM   45  C   MK1     0      16.145  13.408 -18.078  0.00  0.00     0.000 A 
ENDBRANCH  39  40
ENDBRANCH  25  39
ENDBRANCH  24  25
ENDBRANCH   2  24
TORSDOF 10
ENDMDL
MODEL 2
REMARK VINA RESULT:    -6.303      4.483      8.430
REMARK INTER + INTRA:         -12.997
REMARK INTER:                 -11.216
REMARK INTRA:                  -1.781
REMARK UNBOUND:                -3.009
REMARK  10 active torsions:
REMARK  status: ('A' for Active; 'I' for Inactive)
REMARK    1  A    between atoms: N_5  and  C_13 
REMARK    2  A    between atoms: N_6  and  C_21 
REMARK    3  A    between atoms: N_7  and  C_18 
REMARK       I    between atoms: N_7  and  C_24 
REMARK    4  A    between atoms: C_13  and  C_15 
REMARK    5  A    between atoms: C_15  and  C_16 
REMARK    6  A    between atoms: C_16  and  C_17 
REMARK    7  A    between atoms: C_17  and  C_24 
REMARK    8  A    between atoms: C_17  and  C_25 
REMARK    9  A    between atoms: C_21  and  C_28 
REMARK   10  A    between atoms: C_25  and  C_30 
ROOT
HETATM    1  O   MK1     0      21.406   7.084 -17.210  0.00  0.00    -0.221 OA
HETATM    2  C   MK1     0      21.837   8.499 -16.781  0.00  0.00     0.178 C 
ENDROOT
BRANCH   2   3
HETATM    3  C   MK1     0      22.945   8.680 -15.727  0.00  0.00     0.135 C 
BRANCH   3   4
HETATM    4  N   MK1     0      22.757   8.114 -14.308  0.00  0.00    -0.339 N 
HETATM    5  C   MK1     0      23.984   7.707 -13.472  0.00  0.00     0.123 A 
HETATM    6  C   MK1     0      23.797   7.141 -12.052  0.00  0.00     0.108 A 
HETATM    7  C   MK1     0      25.401   7.866 -14.056  0.00  0.00     0.227 A 
HETATM    8  N   MK1     0      22.380   6.982 -11.468  0.00  0.00    -0.339 N 
HETATM    9  C   MK1     0      24.914   7.036 -11.946  0.00  0.00    -0.089 A 
HETATM   10  C   MK1     0      21.153   7.390 -12.304  0.00  0.00     0.126 A 
HETATM   11  C   MK1     0      21.341   7.956 -13.723  0.00  0.00     0.126 A 
HETATM   12  C   MK1     0      26.440   6.892 -11.801  0.00  0.00     0.134 A 
HETATM   13  N   MK1     0      26.629   7.458 -13.221  0.00  0.00    -0.237 NA
HETATM   14  C   MK1     0      27.967   6.749 -11.656  0.00  0.00     0.037 C 
HETATM   15  C   MK1     0      26.252   6.326 -10.381  0.00  0.00     0.037 C 
HETATM   16  O   MK1     0      25.588   8.432 -15.476  0.00  0.00    -0.168 OA
BRANCH   8  17
HETATM   17  C   MK1     0      22.193   6.416 -10.048  0.00  0.00     0.104 C 
BRANCH  17  18
HETATM   18  C   MK1     0      22.611   4.967  -9.735  0.00  0.00     0.046 A 
HETATM   19  C   MK1     0      23.226   4.088 -10.840  0.00  0.00     0.006 A 
HETATM   20  C   MK1     0      23.644   2.640 -10.528  0.00  0.00     0.026 A 
HETATM   21  C   MK1     0      23.447   2.069  -9.111  0.00  0.00     0.120 A 
HETATM   22  N   MK1     0      22.831   2.948  -8.006  0.00  0.00    -0.295 NA
HETATM   23  C   MK1     0      22.413   4.397  -8.319  0.00  0.00     0.122 A 
ENDBRANCH  17  18
ENDBRANCH   8  17
ENDBRANCH   3   4
ENDBRANCH   2   3
BRANCH   2  24
HETATM   24  C   MK1     0      21.159   9.732 -17.406  0.00  0.00     0.061 C 
BRANCH  24  25
HETATM   25  C   MK1     0      21.731  11.139 -17.147  0.00  0.00     0.002 C 
BRANCH  25  26
HETATM   26  C   MK1     0      23.081  11.547 -17.768  0.00  0.00     0.205 C 
HETATM   27  O   MK1     0      23.630  10.782 -18.986  0.00  0.00    -0.170 OA
HETATM   28  N   MK1     0      23.880  12.720 -17.171  0.00  0.00    -0.219 NA
BRANCH  28  29
HETATM   29  C   MK1     0      25.228  13.128 -17.791  0.00  0.00     0.100 A 
HETATM   30  C   MK1     0      26.486  12.256 -17.863  0.00  0.00     0.130 A 
HETATM   31  O   MK1     0      26.621  10.819 -17.327  0.00  0.00    -0.193 OA
HETATM   32  C   MK1     0      27.584  13.063 -18.561  0.00  0.00     0.077 A 
HETATM   33  C   MK1     0      27.010  14.435 -18.922  0.00  0.00    -0.040 A 
HETATM   34  C   MK1     0      25.547  14.476 -18.444  0.00  0.00    -0.010 A 
HETATM   35  C   MK1     0      27.625  15.660 -19.625  0.00  0.00     0.022 A 
HETATM   36  C   MK1     0      24.698  15.741 -18.669  0.00  0.00     0.027 A 
HETATM   37  C   MK1     0      25.312  16.966 -19.373  0.00  0.00     0.005 A 
HETATM   38  C   MK1     0      26.776  16.926 -19.851  0.00  0.00     0.005 A 
ENDBRANCH  28  29
ENDBRANCH  25  26
BRANCH  25  39
HETATM   39  C   MK1     0      20.955  12.137 -16.269  0.00  0.00     0.026 C 
BRANCH  39  40
HETATM   40  C   MK1     0      20.066  13.211 -16.924  0.00  0.00     0.004 A 
HETATM   41  C   MK1     0      20.548  13.941 -18.191  0.00  0.00     0.000 A 
HETATM   42  C   MK1     0      19.659  15.014 -18.847  0.00  0.00     0.000 A 
HETATM   43  C   MK1     0      18.288  15.358 -18.235  0.00  0.00     0.000 A 
HETATM   44  C   MK1     0      17.806  14.627 -16.966  0.00  0.00     0.000 A 
HETATM   45  C   MK1     0      18.695  13.554 -16.312  0.00  0.00     0.000 A 
ENDBRANCH  39  40
ENDBRANCH  25  39
ENDBRANCH  24  25
ENDBRANCH   2  24
TORSDOF 10
ENDMDL
MODEL 3
REMARK VINA RESULT:    -6.226     11.829     16.246
REMARK INTER + INTRA:         -12.875
REMARK INTER:                 -10.667
REMARK INTRA:                  -2.208
REMARK UNBOUND:                -3.009
REMARK  10 active torsions:
REMARK  status: ('A' for Active; 'I' for Inactive)
REMARK    1  A    between atoms: N_5  and  C_13 
REMARK    2  A    between atoms: N_6  and  C_21 
REMARK    3  A    between atoms: N_7  and  C_18 
REMARK       I    between atoms: N_7  and  C_24 
REMARK    4  A    between atoms: C_13  and  C_15 
REMARK    5  A    between atoms: C_15  and  C_16 
REMARK    6  A    between atoms: C_16  and  C_17 
REMARK    7  A    between atoms: C_17  and  C_24 
REMARK    8  A    between atoms: C_17  and  C_25 
REMARK    9  A    between atoms: C_21  and  C_28 
REMARK   10  A    between atoms: C_25  and  C_30 
ROOT
HETATM    1  O   MK1     0      30.157  13.266 -10.444  0.00  0.00    -0.221 OA
HETATM    2  C   MK1     0      29.692  14.692 -10.094  0.00  0.00     0.178 C 
ENDROOT
BRANCH   2   3
HETATM    3  C   MK1     0      30.713  15.843 -10.036  0.00  0.00     0.135 C 
BRANCH   3   4
HETATM    4  N   MK1     0      30.483  17.118 -10.868  0.00  0.00    -0.339 N 
HETATM    5  C   MK1     0      30.735  18.502 -10.242  0.00  0.00     0.123 A 
HETATM    6  C   MK1     0      30.505  19.778 -11.073  0.00  0.00     0.108 A 
HETATM    7  C   MK1     0      31.217  18.611  -8.783  0.00  0.00     0.227 A 
HETATM    8  N   MK1     0      30.023  19.669 -12.532  0.00  0.00    -0.339 N 
HETATM    9  C   MK1     0      30.816  20.409 -10.192  0.00  0.00    -0.089 A 
HETATM   10  C   MK1     0      29.771  18.285 -13.158  0.00  0.00     0.126 A 
HETATM   11  C   MK1     0      30.001  17.010 -12.326  0.00  0.00     0.126 A 
HETATM   12  C   MK1     0      31.239  21.270  -8.988  0.00  0.00     0.134 A 
HETATM   13  N   MK1     0      31.470  19.995  -8.156  0.00  0.00    -0.237 NA
HETATM   14  C   MK1     0      31.664  22.132  -7.783  0.00  0.00     0.037 C 
HETATM   15  C   MK1     0      31.010  22.546  -9.819  0.00  0.00     0.037 C 
HETATM   16  O   MK1     0      31.447  17.335  -7.951  0.00  0.00    -0.168 OA
BRANCH   8  17
HETATM   17  C   MK1     0      29.793  20.945 -13.363  0.00  0.00     0.104 C 
BRANCH  17  18
HETATM   18  C   MK1     0      29.291  20.838 -14.815  0.00  0.00     0.046 A 
HETATM   19  C   MK1     0      27.796  21.036 -15.130  0.00  0.00     0.006 A 
HETATM   20  C   MK1     0      27.294  20.930 -16.581  0.00  0.00     0.026 A 
HETATM   21  C   MK1     0      28.286  20.624 -17.719  0.00  0.00     0.120 A 
HETATM   22  N   MK1     0      29.781  20.425 -17.404  0.00  0.00    -0.295 NA
HETATM   23  C   MK1     0      30.283  20.532 -15.952  0.00  0.00     0.122 A 
ENDBRANCH  17  18
ENDBRANCH   8  17
ENDBRANCH   3   4
ENDBRANCH   2   3
BRANCH   2  24
HETATM   24  C   MK1     0      28.205  14.966  -9.802  0.00  0.00     0.061 C 
BRANCH  24  25
HETATM   25  C   MK1     0      27.527  14.318  -8.581  0.00  0.00     0.002 C 
BRANCH  25  26
HETATM   26  C   MK1     0      27.819  14.850  -7.165  0.00  0.00     0.205 C 
HETATM   27  O   MK1     0      28.876  14.156  -6.286  0.00  0.00    -0.170 OA
HETATM   28  N   MK1     0      27.054  16.074  -6.629  0.00  0.00    -0.219 NA
BRANCH  28  29
HETATM   29  C   MK1     0      27.346  16.606  -5.215  0.00  0.00     0.100 A 
HETATM   30  C   MK1     0      26.883  15.968  -3.901  0.00  0.00     0.130 A 
HETATM   31  O   MK1     0      26.045  14.683  -3.766  0.00  0.00    -0.193 OA
HETATM   32  C   MK1     0      27.400  16.830  -2.746  0.00  0.00     0.077 A 
HETATM   33  C   MK1     0      28.183  18.003  -3.341  0.00  0.00    -0.040 A 
HETATM   34  C   MK1     0      28.149  17.864  -4.874  0.00  0.00    -0.010 A 
HETATM   35  C   MK1     0      28.926  19.185  -2.691  0.00  0.00     0.022 A 
HETATM   36  C   MK1     0      28.859  18.907  -5.758  0.00  0.00     0.027 A 
HETATM   37  C   MK1     0      29.602  20.089  -5.108  0.00  0.00     0.005 A 
HETATM   38  C   MK1     0      29.635  20.228  -3.575  0.00  0.00     0.005 A 
ENDBRANCH  28  29
ENDBRANCH  25  26
BRANCH  25  39
HETATM   39  C   MK1     0      26.557  13.137  -8.775  0.00  0.00     0.026 C 
BRANCH  39  40
HETATM   40  C   MK1     0      27.062  11.691  -8.611  0.00  0.00     0.004 A 
HETATM   41  C   MK1     0      27.536  10.897  -9.841  0.00  0.00     0.000 A 
HETATM   42  C   MK1     0      28.040   9.451  -9.677  0.00  0.00     0.000 A 
HETATM   43  C   MK1     0      28.071   8.800  -8.282  0.00  0.00     0.000 A 
HETATM   44  C   MK1     0      27.596   9.595  -7.050  0.00  0.00     0.000 A 
HETATM   45  C   MK1     0      27.092  11.040  -7.215  0.00  0.00     0.000 A 
ENDBRANCH  39  40
ENDBRANCH  25  39
ENDBRANCH  24  25
ENDBRANCH   2  24
TORSDOF 10
ENDMDL
MODEL 4
REMARK VINA RESULT:    -5.968      4.154      8.699
REMARK INTER + INTRA:         -12.467
REMARK INTER:                 -10.616
REMARK INTRA:                  -1.850
REMARK UNBOUND:                -3.009
REMARK  10 active torsions:
REMARK  status: ('A' for Active; 'I' for Inactive)
REMARK    1  A    between atoms: N_5  and  C_13 
REMARK    2  A    between atoms: N_6  and  C_21 
REMARK    3  A    between atoms: N_7  and  C_18 
REMARK       I    between atoms: N_7  and  C_24 
REMARK    4  A    between atoms: C_13  and  C_15 
REMARK    5  A    between atoms: C_15  and  C_16 
REMARK    6  A    between atoms: C_16  and  C_17 
REMARK    7  A    between atoms: C_17  and  C_24 
REMARK    8  A    between atoms: C_17  and  C_25 
REMARK    9  A    between atoms: C_21  and  C_28 
REMARK   10  A    between atoms: C_25  and  C_30 
ROOT
HETATM    1  O   MK1     0      22.958   8.350 -18.193  0.00  0.00    -0.221 OA
HETATM    2  C   MK1     0      21.583   8.632 -17.561  0.00  0.00     0.178 C 
ENDROOT
BRANCH   2   3
HETATM    3  C   MK1     0      20.961   7.615 -16.586  0.00  0.00     0.135 C 
BRANCH   3   4
HETATM    4  N   MK1     0      21.777   7.102 -15.385  0.00  0.00    -0.339 N 
HETATM    5  C   MK1     0      22.032   5.593 -15.215  0.00  0.00     0.123 A 
HETATM    6  C   MK1     0      22.848   5.079 -14.014  0.00  0.00     0.108 A 
HETATM    7  C   MK1     0      21.471   4.596 -16.247  0.00  0.00     0.227 A 
HETATM    8  N   MK1     0      23.409   6.076 -12.983  0.00  0.00    -0.339 N 
HETATM    9  C   MK1     0      22.718   4.020 -14.379  0.00  0.00    -0.089 A 
HETATM   10  C   MK1     0      23.154   7.585 -13.153  0.00  0.00     0.126 A 
HETATM   11  C   MK1     0      22.338   8.098 -14.353  0.00  0.00     0.126 A 
HETATM   12  C   MK1     0      22.541   2.574 -14.876  0.00  0.00     0.134 A 
HETATM   13  N   MK1     0      21.725   3.086 -16.077  0.00  0.00    -0.237 NA
HETATM   14  C   MK1     0      22.365   1.127 -15.374  0.00  0.00     0.037 C 
HETATM   15  C   MK1     0      23.358   2.061 -13.675  0.00  0.00     0.037 C 
HETATM   16  O   MK1     0      20.654   5.109 -17.448  0.00  0.00    -0.168 OA
BRANCH   8  17
HETATM   17  C   MK1     0      24.225   5.563 -11.782  0.00  0.00     0.104 C 
BRANCH  17  18
HETATM   18  C   MK1     0      23.502   5.046 -10.524  0.00  0.00     0.046 A 
HETATM   19  C   MK1     0      23.548   3.548 -10.170  0.00  0.00     0.006 A 
HETATM   20  C   MK1     0      22.826   3.030  -8.913  0.00  0.00     0.026 A 
HETATM   21  C   MK1     0      22.056   4.011  -8.008  0.00  0.00     0.120 A 
HETATM   22  N   MK1     0      22.010   5.510  -8.362  0.00  0.00    -0.295 NA
HETATM   23  C   MK1     0      22.733   6.026  -9.620  0.00  0.00     0.122 A 
ENDBRANCH  17  18
ENDBRANCH   8  17
ENDBRANCH   3   4
ENDBRANCH   2   3
BRANCH   2  24
HETATM   24  C   MK1     0      20.829   9.930 -17.903  0.00  0.00     0.061 C 
BRANCH  24  25
HETATM   25  C   MK1     0      21.395  11.290 -17.456  0.00  0.00     0.002 C 
BRANCH  25  26
HETATM   26  C   MK1     0      22.734  11.792 -18.029  0.00  0.00     0.205 C 
HETATM   27  O   MK1     0      22.861  12.100 -19.533  0.00  0.00    -0.170 OA
HETATM   28  N   MK1     0      23.946  11.986 -17.099  0.00  0.00    -0.219 NA
BRANCH  28  29
HETATM   29  C   MK1     0      25.284  12.488 -17.671  0.00  0.00     0.100 A 
HETATM   30  C   MK1     0      26.597  11.701 -17.710  0.00  0.00     0.130 A 
HETATM   31  O   MK1     0      26.810  10.270 -17.182  0.00  0.00    -0.193 OA
HETATM   32  C   MK1     0      27.662  12.586 -18.364  0.00  0.00     0.077 A 
HETATM   33  C   MK1     0      27.011  13.921 -18.732  0.00  0.00    -0.040 A 
HETATM   34  C   MK1     0      25.534  13.860 -18.302  0.00  0.00    -0.010 A 
HETATM   35  C   MK1     0      27.566  15.191 -19.405  0.00  0.00     0.022 A 
HETATM   36  C   MK1     0      24.611  15.070 -18.544  0.00  0.00     0.027 A 
HETATM   37  C   MK1     0      25.166  16.340 -19.216  0.00  0.00     0.005 A 
HETATM   38  C   MK1     0      26.643  16.400 -19.647  0.00  0.00     0.005 A 
ENDBRANCH  28  29
ENDBRANCH  25  26
BRANCH  25  39
HETATM   39  C   MK1     0      20.624  12.150 -16.437  0.00  0.00     0.026 C 
BRANCH  39  40
HETATM   40  C   MK1     0      19.727  13.303 -16.925  0.00  0.00     0.004 A 
HETATM   41  C   MK1     0      20.170  14.172 -18.116  0.00  0.00     0.000 A 
HETATM   42  C   MK1     0      19.273  15.325 -18.604  0.00  0.00     0.000 A 
HETATM   43  C   MK1     0      17.933  15.610 -17.899  0.00  0.00     0.000 A 
HETATM   44  C   MK1     0      17.490  14.740 -16.707  0.00  0.00     0.000 A 
HETATM   45  C   MK1     0      18.387  13.587 -16.221  0.00  0.00     0.000 A 
ENDBRANCH  39  40
ENDBRANCH  25  39
ENDBRANCH  24  25
ENDBRANCH   2  24
TORSDOF 10
ENDMDL
MODEL 5
REMARK VINA RESULT:    -5.906      1.623      3.906
REMARK INTER + INTRA:         -12.368
REMARK INTER:                  -9.024
REMARK INTRA:                  -3.344
REMARK UNBOUND:                -3.009
REMARK  10 active torsions:
REMARK  status: ('A' for Active; 'I' for Inactive)
REMARK    1  A    between atoms: N_5  and  C_13 
REMARK    2  A    between atoms: N_6  and  C_21 
REMARK    3  A    between atoms: N_7  and  C_18 
REMARK       I    between atoms: N_7  and  C_24 
REMARK    4  A    between atoms: C_13  and  C_15 
REMARK    5  A    between atoms: C_15  and  C_16 
REMARK    6  A    between atoms: C_16  and  C_17 
REMARK    7  A    between atoms: C_17  and  C_24 
REMARK    8  A    between atoms: C_17  and  C_25 
REMARK    9  A    between atoms: C_21  and  C_28 
REMARK   10  A    between atoms: C_25  and  C_30 
ROOT
HETATM    1  O   MK1     0      19.036  11.979 -24.639  0.00  0.00    -0.221 OA
HETATM    2  C   MK1     0      18.732  11.502 -23.207  0.00  0.00     0.178 C 
ENDROOT
BRANCH   2   3
HETATM    3  C   MK1     0      19.818  10.778 -22.390  0.00  0.00     0.135 C 
BRANCH   3   4
HETATM    4  N   MK1     0      20.581  11.532 -21.286  0.00  0.00    -0.339 N 
HETATM    5  C   MK1     0      20.811  10.867 -19.917  0.00  0.00     0.123 A 
HETATM    6  C   MK1     0      21.575  11.621 -18.812  0.00  0.00     0.108 A 
HETATM    7  C   MK1     0      20.278   9.446 -19.651  0.00  0.00     0.227 A 
HETATM    8  N   MK1     0      22.108  13.041 -19.077  0.00  0.00    -0.339 N 
HETATM    9  C   MK1     0      21.447  10.739 -18.121  0.00  0.00    -0.089 A 
HETATM   10  C   MK1     0      21.878  13.706 -20.447  0.00  0.00     0.126 A 
HETATM   11  C   MK1     0      21.115  12.952 -21.551  0.00  0.00     0.126 A 
HETATM   12  C   MK1     0      21.271   9.535 -17.177  0.00  0.00     0.134 A 
HETATM   13  N   MK1     0      20.508   8.780 -18.281  0.00  0.00    -0.237 NA
HETATM   14  C   MK1     0      21.096   8.330 -16.233  0.00  0.00     0.037 C 
HETATM   15  C   MK1     0      22.035  10.289 -16.072  0.00  0.00     0.037 C 
HETATM   16  O   MK1     0      19.515   8.692 -20.756  0.00  0.00    -0.168 OA
BRANCH   8  17
HETATM   17  C   MK1     0      22.872  13.795 -17.972  0.00  0.00     0.104 C 
BRANCH  17  18
HETATM   18  C   MK1     0      24.404  13.934 -18.052  0.00  0.00     0.046 A 
HETATM   19  C   MK1     0      25.305  13.027 -17.193  0.00  0.00     0.006 A 
HETATM   20  C   MK1     0      26.836  13.165 -17.272  0.00  0.00     0.026 A 
HETATM   21  C   MK1     0      27.467  14.210 -18.211  0.00  0.00     0.120 A 
HETATM   22  N   MK1     0      26.566  15.117 -19.070  0.00  0.00    -0.295 NA
HETATM   23  C   MK1     0      25.035  14.978 -18.991  0.00  0.00     0.122 A 
ENDBRANCH  17  18
ENDBRANCH   8  17
ENDBRANCH   3   4
ENDBRANCH   2   3
BRANCH   2  24
HETATM   24  C   MK1     0      17.342  11.748 -22.592  0.00  0.00     0.061 C 
BRANCH  24  25
HETATM   25  C   MK1     0      17.196  12.659 -21.359  0.00  0.00     0.002 C 
BRANCH  25  26
HETATM   26  C   MK1     0      17.034  14.180 -21.541  0.00  0.00     0.205 C 
HETATM   27  O   MK1     0      15.626  14.796 -21.654  0.00  0.00    -0.170 OA
HETATM   28  N   MK1     0      18.278  15.086 -21.610  0.00  0.00    -0.219 NA
BRANCH  28  29
HETATM   29  C   MK1     0      18.115  16.605 -21.792  0.00  0.00     0.100 A 
HETATM   30  C   MK1     0      17.982  17.342 -23.128  0.00  0.00     0.130 A 
HETATM   31  O   MK1     0      17.988  16.692 -24.524  0.00  0.00    -0.193 OA
HETATM   32  C   MK1     0      17.842  18.838 -22.834  0.00  0.00     0.077 A 
HETATM   33  C   MK1     0      17.888  19.031 -21.316  0.00  0.00    -0.040 A 
HETATM   34  C   MK1     0      18.057  17.644 -20.669  0.00  0.00    -0.010 A 
HETATM   35  C   MK1     0      17.798  20.288 -20.431  0.00  0.00     0.022 A 
HETATM   36  C   MK1     0      18.137  17.514 -19.136  0.00  0.00     0.027 A 
HETATM   37  C   MK1     0      18.047  18.772 -18.251  0.00  0.00     0.005 A 
HETATM   38  C   MK1     0      17.877  20.159 -18.898  0.00  0.00     0.005 A 
ENDBRANCH  28  29
ENDBRANCH  25  26
BRANCH  25  39
HETATM   39  C   MK1     0      17.213  12.051 -19.944  0.00  0.00     0.026 C 
BRANCH  39  40
HETATM   40  C   MK1     0      17.388  12.964 -18.716  0.00  0.00     0.004 A 
HETATM   41  C   MK1     0      18.775  13.540 -18.376  0.00  0.00     0.000 A 
HETATM   42  C   MK1     0      18.950  14.453 -17.148  0.00  0.00     0.000 A 
HETATM   43  C   MK1     0      17.738  14.789 -16.259  0.00  0.00     0.000 A 
HETATM   44  C   MK1     0      16.351  14.212 -16.599  0.00  0.00     0.000 A 
HETATM   45  C   MK1     0      16.176  13.300 -17.827  0.00  0.00     0.000 A 
ENDBRANCH  39  40
ENDBRANCH  25  39
ENDBRANCH  24  25
ENDBRANCH   2  24
TORSDOF 10
ENDMDL
MODEL 6
REMARK VINA RESULT:    -5.873      5.640      9.971
REMARK INTER + INTRA:         -12.316
REMARK INTER:                 -10.344
REMARK INTRA:                  -1.973
REMARK UNBOUND:                -3.009
REMARK  10 active torsions:
REMARK  status: ('A' for Active; 'I' for Inactive)
REMARK    1  A    between atoms: N_5  and  C_13 
REMARK    2  A    between atoms: N_6  and  C_21 
REMARK    3  A    between atoms: N_7  and  C_18 
REMARK       I    between atoms: N_7  and  C_24 
REMARK    4  A    between atoms: C_13  and  C_15 
REMARK    5  A    between atoms: C_15  and  C_16 
REMARK    6  A    between atoms: C_16  and  C_17 
REMARK    7  A    between atoms: C_17  and  C_24 
REMARK    8  A    between atoms: C_17  and  C_25 
REMARK    9  A    between atoms: C_21  and  C_28 
REMARK   10  A    between atoms: C_25  and  C_30 
ROOT
HETATM    1  O   MK1     0      23.424   8.292 -14.296  0.00  0.00    -0.221 OA
HETATM    2  C   MK1     0      21.947   7.909 -14.503  0.00  0.00     0.178 C 
ENDROOT
BRANCH   2   3
HETATM    3  C   MK1     0      21.373   6.654 -13.820  0.00  0.00     0.135 C 
BRANCH   3   4
HETATM    4  N   MK1     0      22.020   6.117 -12.530  0.00  0.00    -0.339 N 
HETATM    5  C   MK1     0      22.642   4.708 -12.510  0.00  0.00     0.123 A 
HETATM    6  C   MK1     0      23.290   4.170 -11.220  0.00  0.00     0.108 A 
HETATM    7  C   MK1     0      22.617   3.836 -13.780  0.00  0.00     0.227 A 
HETATM    8  N   MK1     0      23.315   5.041  -9.950  0.00  0.00    -0.339 N 
HETATM    9  C   MK1     0      23.541   3.206 -11.748  0.00  0.00    -0.089 A 
HETATM   10  C   MK1     0      22.693   6.450  -9.971  0.00  0.00     0.126 A 
HETATM   11  C   MK1     0      22.046   6.987 -11.260  0.00  0.00     0.126 A 
HETATM   12  C   MK1     0      23.886   1.890 -12.470  0.00  0.00     0.134 A 
HETATM   13  N   MK1     0      23.238   2.427 -13.760  0.00  0.00    -0.237 NA
HETATM   14  C   MK1     0      24.230   0.573 -13.191  0.00  0.00     0.037 C 
HETATM   15  C   MK1     0      24.533   1.352 -11.180  0.00  0.00     0.037 C 
HETATM   16  O   MK1     0      21.969   4.375 -15.069  0.00  0.00    -0.168 OA
BRANCH   8  17
HETATM   17  C   MK1     0      23.962   4.503  -8.661  0.00  0.00     0.104 C 
BRANCH  17  18
HETATM   18  C   MK1     0      23.398   3.239  -7.985  0.00  0.00     0.046 A 
HETATM   19  C   MK1     0      21.874   3.047  -7.863  0.00  0.00     0.006 A 
HETATM   20  C   MK1     0      21.309   1.784  -7.188  0.00  0.00     0.026 A 
HETATM   21  C   MK1     0      22.267   0.712  -6.634  0.00  0.00     0.120 A 
HETATM   22  N   MK1     0      23.791   0.905  -6.756  0.00  0.00    -0.295 NA
HETATM   23  C   MK1     0      24.355   2.168  -7.432  0.00  0.00     0.122 A 
ENDBRANCH  17  18
ENDBRANCH   8  17
ENDBRANCH   3   4
ENDBRANCH   2   3
BRANCH   2  24
HETATM   24  C   MK1     0      21.043   8.782 -15.393  0.00  0.00     0.061 C 
BRANCH  24  25
HETATM   25  C   MK1     0      21.287   8.844 -16.912  0.00  0.00     0.002 C 
BRANCH  25  26
HETATM   26  C   MK1     0      20.928  10.119 -17.698  0.00  0.00     0.205 C 
HETATM   27  O   MK1     0      19.993  10.033 -18.919  0.00  0.00    -0.170 OA
HETATM   28  N   MK1     0      21.504  11.480 -17.264  0.00  0.00    -0.219 NA
BRANCH  28  29
HETATM   29  C   MK1     0      21.145  12.754 -18.049  0.00  0.00     0.100 A 
HETATM   30  C   MK1     0      21.920  13.324 -19.241  0.00  0.00     0.130 A 
HETATM   31  O   MK1     0      23.194  12.722 -19.862  0.00  0.00    -0.193 OA
HETATM   32  C   MK1     0      21.207  14.596 -19.707  0.00  0.00     0.077 A 
HETATM   33  C   MK1     0      19.989  14.817 -18.806  0.00  0.00    -0.040 A 
HETATM   34  C   MK1     0      19.951  13.673 -17.776  0.00  0.00    -0.010 A 
HETATM   35  C   MK1     0      18.905  15.910 -18.783  0.00  0.00     0.022 A 
HETATM   36  C   MK1     0      18.828  13.622 -16.723  0.00  0.00     0.027 A 
HETATM   37  C   MK1     0      17.743  14.715 -16.700  0.00  0.00     0.005 A 
HETATM   38  C   MK1     0      17.782  15.860 -17.730  0.00  0.00     0.005 A 
ENDBRANCH  28  29
ENDBRANCH  25  26
BRANCH  25  39
HETATM   39  C   MK1     0      21.890   7.632 -17.647  0.00  0.00     0.026 C 
BRANCH  39  40
HETATM   40  C   MK1     0      20.970   6.655 -18.403  0.00  0.00     0.004 A 
HETATM   41  C   MK1     0      20.996   6.607 -19.942  0.00  0.00     0.000 A 
HETATM   42  C   MK1     0      20.077   5.630 -20.698  0.00  0.00     0.000 A 
HETATM   43  C   MK1     0      19.131   4.700 -19.915  0.00  0.00     0.000 A 
HETATM   44  C   MK1     0      19.105   4.748 -18.375  0.00  0.00     0.000 A 
HETATM   45  C   MK1     0      20.025   5.725 -17.620  0.00  0.00     0.000 A 
ENDBRANCH  39  40
ENDBRANCH  25  39
ENDBRANCH  24  25
ENDBRANCH   2  24
TORSDOF 10
ENDMDL
MODEL 7
REMARK VINA RESULT:    -5.866      2.866      6.070
REMARK INTER + INTRA:         -12.305
REMARK INTER:                 -10.590
REMARK INTRA:                  -1.715
REMARK UNBOUND:                -3.009
REMARK  10 active torsions:
REMARK  status: ('A' for Active; 'I' for Inactive)
REMARK    1  A    between atoms: N_5  and  C_13 
REMARK    2  A    between atoms: N_6  and  C_21 
REMARK    3  A    between atoms: N_7  and  C_18 
REMARK       I    between atoms: N_7  and  C_24 
REMARK    4  A    between atoms: C_13  and  C_15 
REMARK    5  A    between atoms: C_15  and  C_16 
REMARK    6  A    between atoms: C_16  and  C_17 
REMARK    7  A    between atoms: C_17  and  C_24 
REMARK    8  A    between atoms: C_17  and  C_25 
REMARK    9  A    between atoms: C_21  and  C_28 
REMARK   10  A    between atoms: C_25  and  C_30 
ROOT
HETATM    1  O   MK1     0      20.761  12.641 -20.134  0.00  0.00    -0.221 OA
HETATM    2  C   MK1     0      20.819  13.746 -19.062  0.00  0.00     0.178 C 
ENDROOT
BRANCH   2   3
HETATM    3  C   MK1     0      21.717  13.569 -17.823  0.00  0.00     0.135 C 
BRANCH   3   4
HETATM    4  N   MK1     0      22.047  12.157 -17.307  0.00  0.00    -0.339 N 
HETATM    5  C   MK1     0      23.488  11.621 -17.396  0.00  0.00     0.123 A 
HETATM    6  C   MK1     0      23.819  10.209 -16.880  0.00  0.00     0.108 A 
HETATM    7  C   MK1     0      24.600  12.499 -18.002  0.00  0.00     0.227 A 
HETATM    8  N   MK1     0      22.707   9.331 -16.274  0.00  0.00    -0.339 N 
HETATM    9  C   MK1     0      24.897  10.353 -17.173  0.00  0.00    -0.089 A 
HETATM   10  C   MK1     0      21.266   9.867 -16.185  0.00  0.00     0.126 A 
HETATM   11  C   MK1     0      20.936  11.279 -16.701  0.00  0.00     0.126 A 
HETATM   12  C   MK1     0      26.370  10.551 -17.574  0.00  0.00     0.134 A 
HETATM   13  N   MK1     0      26.041  11.964 -18.091  0.00  0.00    -0.237 NA
HETATM   14  C   MK1     0      27.845  10.749 -17.976  0.00  0.00     0.037 C 
HETATM   15  C   MK1     0      26.701   9.138 -17.058  0.00  0.00     0.037 C 
HETATM   16  O   MK1     0      24.269  13.912 -18.518  0.00  0.00    -0.168 OA
BRANCH   8  17
HETATM   17  C   MK1     0      23.038   7.918 -15.757  0.00  0.00     0.104 C 
BRANCH  17  18
HETATM   18  C   MK1     0      22.931   7.604 -14.254  0.00  0.00     0.046 A 
HETATM   19  C   MK1     0      21.548   7.421 -13.601  0.00  0.00     0.006 A 
HETATM   20  C   MK1     0      21.441   7.107 -12.098  0.00  0.00     0.026 A 
HETATM   21  C   MK1     0      22.718   6.974 -11.246  0.00  0.00     0.120 A 
HETATM   22  N   MK1     0      24.101   7.157 -11.898  0.00  0.00    -0.295 NA
HETATM   23  C   MK1     0      24.207   7.471 -13.402  0.00  0.00     0.122 A 
ENDBRANCH  17  18
ENDBRANCH   8  17
ENDBRANCH   3   4
ENDBRANCH   2   3
BRANCH   2  24
HETATM   24  C   MK1     0      19.980  15.026 -19.229  0.00  0.00     0.061 C 
BRANCH  24  25
HETATM   25  C   MK1     0      18.610  15.144 -18.536  0.00  0.00     0.002 C 
BRANCH  25  26
HETATM   26  C   MK1     0      17.685  13.916 -18.443  0.00  0.00     0.205 C 
HETATM   27  O   MK1     0      17.157  13.453 -17.072  0.00  0.00    -0.170 OA
HETATM   28  N   MK1     0      17.290  13.150 -19.720  0.00  0.00    -0.219 NA
BRANCH  28  29
HETATM   29  C   MK1     0      16.366  11.923 -19.626  0.00  0.00     0.100 A 
HETATM   30  C   MK1     0      16.734  10.488 -20.017  0.00  0.00     0.130 A 
HETATM   31  O   MK1     0      18.093  10.023 -20.572  0.00  0.00    -0.193 OA
HETATM   32  C   MK1     0      15.515   9.598 -19.759  0.00  0.00     0.077 A 
HETATM   33  C   MK1     0      14.391  10.478 -19.208  0.00  0.00    -0.040 A 
HETATM   34  C   MK1     0      14.919  11.922 -19.126  0.00  0.00    -0.010 A 
HETATM   35  C   MK1     0      12.949  10.159 -18.769  0.00  0.00     0.022 A 
HETATM   36  C   MK1     0      14.006  13.047 -18.603  0.00  0.00     0.027 A 
HETATM   37  C   MK1     0      12.565  12.729 -18.164  0.00  0.00     0.005 A 
HETATM   38  C   MK1     0      12.036  11.284 -18.247  0.00  0.00     0.005 A 
ENDBRANCH  28  29
ENDBRANCH  25  26
BRANCH  25  39
HETATM   39  C   MK1     0      18.163  16.491 -17.937  0.00  0.00     0.026 C 
BRANCH  39  40
HETATM   40  C   MK1     0      17.927  17.703 -18.857  0.00  0.00     0.004 A 
HETATM   41  C   MK1     0      17.453  17.490 -20.306  0.00  0.00     0.000 A 
HETATM   42  C   MK1     0      17.217  18.702 -21.226  0.00  0.00     0.000 A 
HETATM   43  C   MK1     0      17.456  20.128 -20.696  0.00  0.00     0.000 A 
HETATM   44  C   MK1     0      17.931  20.342 -19.246  0.00  0.00     0.000 A 
HETATM   45  C   MK1     0      18.167  19.129 -18.327  0.00  0.00     0.000 A 
ENDBRANCH  39  40
ENDBRANCH  25  39
ENDBRANCH  24  25
ENDBRANCH   2  24
TORSDOF 10
ENDMDL
MODEL 8
REMARK VINA RESULT:    -5.787      4.217      8.873
REMARK INTER + INTRA:         -12.179
REMARK INTER:                  -9.839
REMARK INTRA:                  -2.340
REMARK UNBOUND:                -3.009
REMARK  10 active torsions:
REMARK  status: ('A' for Active; 'I' for Inactive)
REMARK    1  A    between atoms: N_5  and  C_13 
REMARK    2  A    between atoms: N_6  and  C_21 
REMARK    3  A    between atoms: N_7  and  C_18 
REMARK       I    between atoms: N_7  and  C_24 
REMARK    4  A    between atoms: C_13  and  C_15 
REMARK    5  A    between atoms: C_15  and  C_16 
REMARK    6  A    between atoms: C_16  and  C_17 
REMARK    7  A    between atoms: C_17  and  C_24 
REMARK    8  A    between atoms: C_17  and  C_25 
REMARK    9  A    between atoms: C_21  and  C_28 
REMARK   10  A    between atoms: C_25  and  C_30 
ROOT
HETATM    1  O   MK1     0      26.427   9.176 -18.736  0.00  0.00    -0.221 OA
HETATM    2  C   MK1     0      25.725   9.126 -17.366  0.00  0.00     0.178 C 
ENDROOT
BRANCH   2   3
HETATM    3  C   MK1     0      25.080   7.815 -16.878  0.00  0.00     0.135 C 
BRANCH   3   4
HETATM    4  N   MK1     0      25.381   7.290 -15.463  0.00  0.00    -0.339 N 
HETATM    5  C   MK1     0      24.273   7.281 -14.393  0.00  0.00     0.123 A 
HETATM    6  C   MK1     0      24.572   6.756 -12.977  0.00  0.00     0.108 A 
HETATM    7  C   MK1     0      22.864   7.798 -14.740  0.00  0.00     0.227 A 
HETATM    8  N   MK1     0      25.981   6.240 -12.630  0.00  0.00    -0.339 N 
HETATM    9  C   MK1     0      23.508   6.971 -12.672  0.00  0.00    -0.089 A 
HETATM   10  C   MK1     0      27.089   6.248 -13.699  0.00  0.00     0.126 A 
HETATM   11  C   MK1     0      26.789   6.773 -15.115  0.00  0.00     0.126 A 
HETATM   12  C   MK1     0      22.056   7.265 -12.255  0.00  0.00     0.134 A 
HETATM   13  N   MK1     0      21.755   7.790 -13.671  0.00  0.00    -0.237 NA
HETATM   14  C   MK1     0      20.602   7.558 -11.837  0.00  0.00     0.037 C 
HETATM   15  C   MK1     0      22.356   6.740 -10.838  0.00  0.00     0.037 C 
HETATM   16  O   MK1     0      22.564   8.323 -16.156  0.00  0.00    -0.168 OA
BRANCH   8  17
HETATM   17  C   MK1     0      26.281   5.715 -11.213  0.00  0.00     0.104 C 
BRANCH  17  18
HETATM   18  C   MK1     0      25.356   4.665 -10.569  0.00  0.00     0.046 A 
HETATM   19  C   MK1     0      24.824   3.488 -11.409  0.00  0.00     0.006 A 
HETATM   20  C   MK1     0      23.900   2.439 -10.767  0.00  0.00     0.026 A 
HETATM   21  C   MK1     0      23.506   2.565  -9.282  0.00  0.00     0.120 A 
HETATM   22  N   MK1     0      24.038   3.741  -8.442  0.00  0.00    -0.295 NA
HETATM   23  C   MK1     0      24.963   4.791  -9.086  0.00  0.00     0.122 A 
ENDBRANCH  17  18
ENDBRANCH   8  17
ENDBRANCH   3   4
ENDBRANCH   2   3
BRANCH   2  24
HETATM   24  C   MK1     0      25.667  10.386 -16.483  0.00  0.00     0.061 C 
BRANCH  24  25
HETATM   25  C   MK1     0      25.081  11.694 -17.046  0.00  0.00     0.002 C 
BRANCH  25  26
HETATM   26  C   MK1     0      23.788  11.661 -17.884  0.00  0.00     0.205 C 
HETATM   27  O   MK1     0      23.863  11.776 -19.418  0.00  0.00    -0.170 OA
HETATM   28  N   MK1     0      22.422  11.513 -17.188  0.00  0.00    -0.219 NA
BRANCH  28  29
HETATM   29  C   MK1     0      21.131  11.480 -18.025  0.00  0.00     0.100 A 
HETATM   30  C   MK1     0      20.783  10.447 -19.101  0.00  0.00     0.130 A 
HETATM   31  O   MK1     0      21.664   9.260 -19.533  0.00  0.00    -0.193 OA
HETATM   32  C   MK1     0      19.407  10.800 -19.672  0.00  0.00     0.077 A 
HETATM   33  C   MK1     0      18.900  12.052 -18.952  0.00  0.00    -0.040 A 
HETATM   34  C   MK1     0      19.971  12.474 -17.929  0.00  0.00    -0.010 A 
HETATM   35  C   MK1     0      17.602  12.869 -19.089  0.00  0.00     0.022 A 
HETATM   36  C   MK1     0      19.744  13.714 -17.044  0.00  0.00     0.027 A 
HETATM   37  C   MK1     0      18.446  14.531 -17.181  0.00  0.00     0.005 A 
HETATM   38  C   MK1     0      17.375  14.109 -18.203  0.00  0.00     0.005 A 
ENDBRANCH  28  29
ENDBRANCH  25  26
BRANCH  25  39
HETATM   39  C   MK1     0      25.786  13.036 -16.772  0.00  0.00     0.026 C 
BRANCH  39  40
HETATM   40  C   MK1     0      25.821  14.124 -17.861  0.00  0.00     0.004 A 
HETATM   41  C   MK1     0      24.807  15.282 -17.826  0.00  0.00     0.000 A 
HETATM   42  C   MK1     0      24.842  16.370 -18.915  0.00  0.00     0.000 A 
HETATM   43  C   MK1     0      25.891  16.300 -20.040  0.00  0.00     0.000 A 
HETATM   44  C   MK1     0      26.906  15.141 -20.076  0.00  0.00     0.000 A 
HETATM   45  C   MK1     0      26.870  14.054 -18.986  0.00  0.00     0.000 A 
ENDBRANCH  39  40
ENDBRANCH  25  39
ENDBRANCH  24  25
ENDBRANCH   2  24
TORSDOF 10
ENDMDL
MODEL 9
REMARK VINA RESULT:    -5.768      3.047      5.546
REMARK INTER + INTRA:         -12.149
REMARK INTER:                  -9.915
REMARK INTRA:                  -2.233
REMARK UNBOUND:                -3.009
REMARK  10 active torsions:
REMARK  status: ('A' for Active; 'I' for Inactive)
REMARK    1  A    between atoms: N_5  and  C_13 
REMARK    2  A    between atoms: N_6  and  C_21 
REMARK    3  A    between atoms: N_7  and  C_18 
REMARK       I    between atoms: N_7  and  C_24 
REMARK    4  A    between atoms: C_13  and  C_15 
REMARK    5  A    between atoms: C_15  and  C_16 
REMARK    6  A    between atoms: C_16  and  C_17 
REMARK    7  A    between atoms: C_17  and  C_24 
REMARK    8  A    between atoms: C_17  and  C_25 
REMARK    9  A    between atoms: C_21  and  C_28 
REMARK   10  A    between atoms: C_25  and  C_30 
ROOT
HETATM    1  O   MK1     0      22.910   9.169 -19.714  0.00  0.00    -0.221 OA
HETATM    2  C   MK1     0      22.989  10.485 -18.917  0.00  0.00     0.178 C 
ENDROOT
BRANCH   2   3
HETATM    3  C   MK1     0      23.329  10.455 -17.415  0.00  0.00     0.135 C 
BRANCH   3   4
HETATM    4  N   MK1     0      22.982   9.215 -16.571  0.00  0.00    -0.339 N 
HETATM    5  C   MK1     0      24.106   8.370 -15.946  0.00  0.00     0.123 A 
HETATM    6  C   MK1     0      23.760   7.128 -15.102  0.00  0.00     0.108 A 
HETATM    7  C   MK1     0      25.579   8.765 -16.163  0.00  0.00     0.227 A 
HETATM    8  N   MK1     0      22.287   6.733 -14.884  0.00  0.00    -0.339 N 
HETATM    9  C   MK1     0      24.858   6.939 -14.930  0.00  0.00    -0.089 A 
HETATM   10  C   MK1     0      21.162   7.578 -15.510  0.00  0.00     0.126 A 
HETATM   11  C   MK1     0      21.509   8.819 -16.354  0.00  0.00     0.126 A 
HETATM   12  C   MK1     0      26.357   6.679 -14.694  0.00  0.00     0.134 A 
HETATM   13  N   MK1     0      26.705   7.920 -15.537  0.00  0.00    -0.237 NA
HETATM   14  C   MK1     0      27.857   6.420 -14.458  0.00  0.00     0.037 C 
HETATM   15  C   MK1     0      26.010   5.438 -13.850  0.00  0.00     0.037 C 
HETATM   16  O   MK1     0      25.926  10.006 -17.007  0.00  0.00    -0.168 OA
BRANCH   8  17
HETATM   17  C   MK1     0      21.940   5.492 -14.041  0.00  0.00     0.104 C 
BRANCH  17  18
HETATM   18  C   MK1     0      22.263   5.470 -12.535  0.00  0.00     0.046 A 
HETATM   19  C   MK1     0      22.859   4.203 -11.894  0.00  0.00     0.006 A 
HETATM   20  C   MK1     0      23.182   4.179 -10.389  0.00  0.00     0.026 A 
HETATM   21  C   MK1     0      22.908   5.424  -9.523  0.00  0.00     0.120 A 
HETATM   22  N   MK1     0      22.312   6.692 -10.165  0.00  0.00    -0.295 NA
HETATM   23  C   MK1     0      21.989   6.714 -11.670  0.00  0.00     0.122 A 
ENDBRANCH  17  18
ENDBRANCH   8  17
ENDBRANCH   3   4
ENDBRANCH   2   3
BRANCH   2  24
HETATM   24  C   MK1     0      22.729  11.829 -19.620  0.00  0.00     0.061 C 
BRANCH  24  25
HETATM   25  C   MK1     0      21.376  12.543 -19.441  0.00  0.00     0.002 C 
BRANCH  25  26
HETATM   26  C   MK1     0      21.196  13.989 -19.940  0.00  0.00     0.205 C 
HETATM   27  O   MK1     0      22.254  15.056 -19.601  0.00  0.00    -0.170 OA
HETATM   28  N   MK1     0      19.960  14.368 -20.776  0.00  0.00    -0.219 NA
BRANCH  28  29
HETATM   29  C   MK1     0      19.781  15.814 -21.274  0.00  0.00     0.100 A 
HETATM   30  C   MK1     0      20.229  16.359 -22.633  0.00  0.00     0.130 A 
HETATM   31  O   MK1     0      20.937  15.556 -23.740  0.00  0.00    -0.193 OA
HETATM   32  C   MK1     0      19.850  17.841 -22.699  0.00  0.00     0.077 A 
HETATM   33  C   MK1     0      19.167  18.217 -21.382  0.00  0.00    -0.040 A 
HETATM   34  C   MK1     0      19.124  16.957 -20.497  0.00  0.00    -0.010 A 
HETATM   35  C   MK1     0      18.575  19.542 -20.866  0.00  0.00     0.022 A 
HETATM   36  C   MK1     0      18.489  17.023 -19.095  0.00  0.00     0.027 A 
HETATM   37  C   MK1     0      17.897  18.348 -18.579  0.00  0.00     0.005 A 
HETATM   38  C   MK1     0      17.940  19.607 -19.464  0.00  0.00     0.005 A 
ENDBRANCH  28  29
ENDBRANCH  25  26
BRANCH  25  39
HETATM   39  C   MK1     0      20.202  11.811 -18.765  0.00  0.00     0.026 C 
BRANCH  39  40
HETATM   40  C   MK1     0      19.055  12.618 -18.127  0.00  0.00     0.004 A 
HETATM   41  C   MK1     0      17.679  12.676 -18.815  0.00  0.00     0.000 A 
HETATM   42  C   MK1     0      16.533  13.484 -18.177  0.00  0.00     0.000 A 
HETATM   43  C   MK1     0      16.764  14.234 -16.852  0.00  0.00     0.000 A 
HETATM   44  C   MK1     0      18.141  14.177 -16.165  0.00  0.00     0.000 A 
HETATM   45  C   MK1     0      19.286  13.369 -16.802  0.00  0.00     0.000 A 
ENDBRANCH  39  40
ENDBRANCH  25  39
ENDBRANCH  24  25
ENDBRANCH   2  24
TORSDOF 10
ENDMDL
