MODEL 1
REMARK VINA RESULT:   -10.972      0.000      0.000
REMARK INTER + INTRA:         -19.685
REMARK INTER:                 -17.386
REMARK INTRA:                  -2.299
REMARK UNBOUND:                -2.299
REMARK  10 active torsions:
REMARK  status: ('A' for Active; 'I' for Inactive)
REMARK    1  A    between atoms: N_5  and  C_13 
REMARK    2  A    between atoms: N_6  and  C_21 
REMARK    3  A    between atoms: N_7  and  C_18 
REMARK       I    between atoms: N_7  and  C_24 
REMARK    4  A    between atoms: C_13  and  C_15 
REMARK    5  A    between atoms: C_15  and  C_16 
REMARK    6  A    between atoms: C_16  and  C_17 
REMARK    7  A    between atoms: C_17  and  C_24 
REMARK    8  A    between atoms: C_17  and  C_25 
REMARK    9  A    between atoms: C_21  and  C_28 
REMARK   10  A    between atoms: C_25  and  C_30 
ROOT
HETATM    1  O   MK1     0      11.601  22.948   6.695  0.00  0.00    -0.221 OA
HETATM    2  C   MK1     0      12.394  24.259   6.850  0.00  0.00     0.178 C 
ENDROOT
BRANCH   2   3
HETATM    3  C   MK1     0      12.019  25.490   6.004  0.00  0.00     0.135 C 
BRANCH   3   4
HETATM    4  N   MK1     0      10.836  25.417   5.021  0.00  0.00    -0.339 N 
HETATM    5  C   MK1     0       9.491  26.073   5.385  0.00  0.00     0.123 A 
HETATM    6  C   MK1     0       8.307  26.000   4.402  0.00  0.00     0.108 A 
HETATM    7  C   MK1     0       9.329  26.802   6.732  0.00  0.00     0.227 A 
HETATM    8  N   MK1     0       8.469  25.270   3.055  0.00  0.00    -0.339 N 
HETATM    9  C   MK1     0       7.671  26.585   5.125  0.00  0.00    -0.089 A 
HETATM   10  C   MK1     0       9.814  24.614   2.692  0.00  0.00     0.126 A 
HETATM   11  C   MK1     0      10.997  24.687   3.674  0.00  0.00     0.126 A 
HETATM   12  C   MK1     0       6.801  27.385   6.113  0.00  0.00     0.134 A 
HETATM   13  N   MK1     0       7.985  27.459   7.096  0.00  0.00    -0.237 NA
HETATM   14  C   MK1     0       5.931  28.185   7.101  0.00  0.00     0.037 C 
HETATM   15  C   MK1     0       5.618  27.312   5.130  0.00  0.00     0.037 C 
HETATM   16  O   MK1     0      10.513  26.875   7.714  0.00  0.00    -0.168 OA
BRANCH   8  17
HETATM   17  C   MK1     0       7.285  25.197   2.073  0.00  0.00     0.104 C 
BRANCH  17  18
HETATM   18  C   MK1     0       5.935  24.618   2.536  0.00  0.00     0.046 A 
HETATM   19  C   MK1     0       5.902  23.382   3.454  0.00  0.00     0.006 A 
HETATM   20  C   MK1     0       4.553  22.803   3.917  0.00  0.00     0.026 A 
HETATM   21  C   MK1     0       3.235  23.460   3.462  0.00  0.00     0.120 A 
HETATM   22  N   MK1     0       3.269  24.696   2.544  0.00  0.00    -0.295 NA
HETATM   23  C   MK1     0       4.619  25.275   2.081  0.00  0.00     0.122 A 
ENDBRANCH  17  18
ENDBRANCH   8  17
ENDBRANCH   3   4
ENDBRANCH   2   3
BRANCH   2  24
HETATM   24  C   MK1     0      13.562  24.340   7.850  0.00  0.00     0.061 C 
BRANCH  24  25
HETATM   25  C   MK1     0      14.881  23.601   7.555  0.00  0.00     0.002 C 
BRANCH  25  26
HETATM   26  C   MK1     0      15.095  22.922   6.190  0.00  0.00     0.205 C 
HETATM   27  O   MK1     0      15.427  23.774   4.950  0.00  0.00    -0.170 OA
HETATM   28  N   MK1     0      14.976  21.391   6.063  0.00  0.00    -0.219 NA
BRANCH  28  29
HETATM   29  C   MK1     0      15.190  20.713   4.698  0.00  0.00     0.100 A 
HETATM   30  C   MK1     0      14.358  20.952   3.435  0.00  0.00     0.130 A 
HETATM   31  O   MK1     0      13.161  21.912   3.309  0.00  0.00    -0.193 OA
HETATM   32  C   MK1     0      14.923  20.069   2.319  0.00  0.00     0.077 A 
HETATM   33  C   MK1     0      16.106  19.282   2.888  0.00  0.00    -0.040 A 
HETATM   34  C   MK1     0      16.272  19.682   4.366  0.00  0.00    -0.010 A 
HETATM   35  C   MK1     0      17.060  18.250   2.257  0.00  0.00     0.022 A 
HETATM   36  C   MK1     0      17.392  19.050   5.213  0.00  0.00     0.027 A 
HETATM   37  C   MK1     0      18.346  18.018   4.583  0.00  0.00     0.005 A 
HETATM   38  C   MK1     0      18.180  17.618   3.105  0.00  0.00     0.005 A 
ENDBRANCH  28  29
ENDBRANCH  25  26
BRANCH  25  39
HETATM   39  C   MK1     0      15.987  23.541   8.626  0.00  0.00     0.026 C 
BRANCH  39  40
HETATM   40  C   MK1     0      16.639  22.193   8.984  0.00  0.00     0.004 A 
HETATM   41  C   MK1     0      18.114  21.932   8.627  0.00  0.00     0.000 A 
HETATM   42  C   MK1     0      18.767  20.584   8.985  0.00  0.00     0.000 A 
HETATM   43  C   MK1     0      17.944  19.496   9.700  0.00  0.00     0.000 A 
HETATM   44  C   MK1     0      16.468  19.757  10.057  0.00  0.00     0.000 A 
HETATM   45  C   MK1     0      15.817  21.105   9.699  0.00  0.00     0.000 A 
ENDBRANCH  39  40
ENDBRANCH  25  39
ENDBRANCH  24  25
ENDBRANCH   2  24
TORSDOF 10
ENDMDL
MODEL 2
REMARK VINA RESULT:   -10.397      2.041      4.207
REMARK INTER + INTRA:         -18.773
REMARK INTER:                 -16.978
REMARK INTRA:                  -1.795
REMARK UNBOUND:                -2.299
REMARK  10 active torsions:
REMARK  status: ('A' for Active; 'I' for Inactive)
REMARK    1  A    between atoms: N_5  and  C_13 
REMARK    2  A    between atoms: N_6  and  C_21 
REMARK    3  A    between atoms: N_7  and  C_18 
REMARK       I    between atoms: N_7  and  C_24 
REMARK    4  A    between atoms: C_13  and  C_15 
REMARK    5  A    between atoms: C_15  and  C_16 
REMARK    6  A    between atoms: C_16  and  C_17 
REMARK    7  A    between atoms: C_17  and  C_24 
REMARK    8  A    between atoms: C_17  and  C_25 
REMARK    9  A    between atoms: C_21  and  C_28 
REMARK   10  A    between atoms: C_25  and  C_30 
ROOT
HETATM    1  O   MK1     0      11.466  24.052   1.674  0.00  0.00    -0.221 OA
HETATM    2  C   MK1     0      10.826  24.404   3.030  0.00  0.00     0.178 C 
ENDROOT
BRANCH   2   3
HETATM    3  C   MK1     0       9.758  25.511   3.113  0.00  0.00     0.135 C 
BRANCH   3   4
HETATM    4  N   MK1     0       8.266  25.136   3.180  0.00  0.00    -0.339 N 
HETATM    5  C   MK1     0       7.324  25.891   4.136  0.00  0.00     0.123 A 
HETATM    6  C   MK1     0       5.832  25.516   4.204  0.00  0.00     0.108 A 
HETATM    7  C   MK1     0       7.875  27.021   5.026  0.00  0.00     0.227 A 
HETATM    8  N   MK1     0       5.281  24.386   3.314  0.00  0.00    -0.339 N 
HETATM    9  C   MK1     0       5.667  26.313   4.984  0.00  0.00    -0.089 A 
HETATM   10  C   MK1     0       6.223  23.631   2.358  0.00  0.00     0.126 A 
HETATM   11  C   MK1     0       7.715  24.006   2.291  0.00  0.00     0.126 A 
HETATM   12  C   MK1     0       5.442  27.401   6.050  0.00  0.00     0.134 A 
HETATM   13  N   MK1     0       6.934  27.777   5.983  0.00  0.00    -0.237 NA
HETATM   14  C   MK1     0       5.216  28.490   7.116  0.00  0.00     0.037 C 
HETATM   15  C   MK1     0       3.949  27.027   6.118  0.00  0.00     0.037 C 
HETATM   16  O   MK1     0       9.368  27.396   4.958  0.00  0.00    -0.168 OA
BRANCH   8  17
HETATM   17  C   MK1     0       3.789  24.011   3.382  0.00  0.00     0.104 C 
BRANCH  17  18
HETATM   18  C   MK1     0       3.369  22.532   3.463  0.00  0.00     0.046 A 
HETATM   19  C   MK1     0       4.081  21.582   4.445  0.00  0.00     0.006 A 
HETATM   20  C   MK1     0       3.662  20.103   4.526  0.00  0.00     0.026 A 
HETATM   21  C   MK1     0       2.530  19.572   3.625  0.00  0.00     0.120 A 
HETATM   22  N   MK1     0       1.819  20.522   2.643  0.00  0.00    -0.295 NA
HETATM   23  C   MK1     0       2.239  22.002   2.563  0.00  0.00     0.122 A 
ENDBRANCH  17  18
ENDBRANCH   8  17
ENDBRANCH   3   4
ENDBRANCH   2   3
BRANCH   2  24
HETATM   24  C   MK1     0      11.255  23.652   4.303  0.00  0.00     0.061 C 
BRANCH  24  25
HETATM   25  C   MK1     0      12.465  24.144   5.117  0.00  0.00     0.002 C 
BRANCH  25  26
HETATM   26  C   MK1     0      13.765  23.317   5.139  0.00  0.00     0.205 C 
HETATM   27  O   MK1     0      15.129  24.026   5.035  0.00  0.00    -0.170 OA
HETATM   28  N   MK1     0      13.702  21.784   5.265  0.00  0.00    -0.219 NA
BRANCH  28  29
HETATM   29  C   MK1     0      15.001  20.959   5.287  0.00  0.00     0.100 A 
HETATM   30  C   MK1     0      15.970  20.838   6.467  0.00  0.00     0.130 A 
HETATM   31  O   MK1     0      15.814  21.521   7.839  0.00  0.00    -0.193 OA
HETATM   32  C   MK1     0      17.121  19.920   6.046  0.00  0.00     0.077 A 
HETATM   33  C   MK1     0      16.868  19.471   4.605  0.00  0.00    -0.040 A 
HETATM   34  C   MK1     0      15.551  20.116   4.134  0.00  0.00    -0.010 A 
HETATM   35  C   MK1     0      17.661  18.557   3.653  0.00  0.00     0.022 A 
HETATM   36  C   MK1     0      15.028  19.847   2.710  0.00  0.00     0.027 A 
HETATM   37  C   MK1     0      15.822  18.933   1.758  0.00  0.00     0.005 A 
HETATM   38  C   MK1     0      17.138  18.288   2.229  0.00  0.00     0.005 A 
ENDBRANCH  28  29
ENDBRANCH  25  26
BRANCH  25  39
HETATM   39  C   MK1     0      12.378  25.461   5.910  0.00  0.00     0.026 C 
BRANCH  39  40
HETATM   40  C   MK1     0      11.635  25.500   7.259  0.00  0.00     0.004 A 
HETATM   41  C   MK1     0      12.370  25.964   8.530  0.00  0.00     0.000 A 
HETATM   42  C   MK1     0      11.627  26.003   9.878  0.00  0.00     0.000 A 
HETATM   43  C   MK1     0      10.149  25.577   9.956  0.00  0.00     0.000 A 
HETATM   44  C   MK1     0       9.414  25.112   8.684  0.00  0.00     0.000 A 
HETATM   45  C   MK1     0      10.157  25.074   7.337  0.00  0.00     0.000 A 
ENDBRANCH  39  40
ENDBRANCH  25  39
ENDBRANCH  24  25
ENDBRANCH   2  24
TORSDOF 10
ENDMDL
MODEL 3
REMARK VINA RESULT:   -10.346      2.523     11.758
REMARK INTER + INTRA:         -18.693
REMARK INTER:                 -16.432
REMARK INTRA:                  -2.261
REMARK UNBOUND:                -2.299
REMARK  10 active torsions:
REMARK  status: ('A' for Active; 'I' for Inactive)
REMARK    1  A    between atoms: N_5  and  C_13 
REMARK    2  A    between atoms: N_6  and  C_21 
REMARK    3  A    between atoms: N_7  and  C_18 
REMARK       I    between atoms: N_7  and  C_24 
REMARK    4  A    between atoms: C_13  and  C_15 
REMARK    5  A    between atoms: C_15  and  C_16 
REMARK    6  A    between atoms: C_16  and  C_17 
REMARK    7  A    between atoms: C_17  and  C_24 
REMARK    8  A    between atoms: C_17  and  C_25 
REMARK    9  A    between atoms: C_21  and  C_28 
REMARK   10  A    between atoms: C_25  and  C_30 
ROOT
HETATM    1  O   MK1     0      13.113  21.212   6.073  0.00  0.00    -0.221 OA
HETATM    2  C   MK1     0      13.883  21.690   4.828  0.00  0.00     0.178 C 
ENDROOT
BRANCH   2   3
HETATM    3  C   MK1     0      15.422  21.755   4.852  0.00  0.00     0.135 C 
BRANCH   3   4
HETATM    4  N   MK1     0      16.196  21.211   6.067  0.00  0.00    -0.339 N 
HETATM    5  C   MK1     0      16.994  19.899   5.948  0.00  0.00     0.123 A 
HETATM    6  C   MK1     0      17.768  19.355   7.163  0.00  0.00     0.108 A 
HETATM    7  C   MK1     0      17.017  19.131   4.614  0.00  0.00     0.227 A 
HETATM    8  N   MK1     0      17.744  20.124   8.498  0.00  0.00    -0.339 N 
HETATM    9  C   MK1     0      18.115  18.476   6.549  0.00  0.00    -0.089 A 
HETATM   10  C   MK1     0      16.947  21.436   8.617  0.00  0.00     0.126 A 
HETATM   11  C   MK1     0      16.173  21.979   7.402  0.00  0.00     0.126 A 
HETATM   12  C   MK1     0      18.589  17.275   5.710  0.00  0.00     0.134 A 
HETATM   13  N   MK1     0      17.815  17.819   4.494  0.00  0.00    -0.237 NA
HETATM   14  C   MK1     0      19.063  16.074   4.870  0.00  0.00     0.037 C 
HETATM   15  C   MK1     0      19.363  16.731   6.925  0.00  0.00     0.037 C 
HETATM   16  O   MK1     0      16.243  19.675   3.399  0.00  0.00    -0.168 OA
BRANCH   8  17
HETATM   17  C   MK1     0      18.519  19.580   9.713  0.00  0.00     0.104 C 
BRANCH  17  18
HETATM   18  C   MK1     0      18.099  18.247  10.360  0.00  0.00     0.046 A 
HETATM   19  C   MK1     0      19.147  17.145  10.603  0.00  0.00     0.006 A 
HETATM   20  C   MK1     0      18.729  15.812  11.249  0.00  0.00     0.026 A 
HETATM   21  C   MK1     0      17.260  15.580  11.653  0.00  0.00     0.120 A 
HETATM   22  N   MK1     0      16.211  16.681  11.410  0.00  0.00    -0.295 NA
HETATM   23  C   MK1     0      16.631  18.015  10.763  0.00  0.00     0.122 A 
ENDBRANCH  17  18
ENDBRANCH   8  17
ENDBRANCH   3   4
ENDBRANCH   2   3
BRANCH   2  24
HETATM   24  C   MK1     0      13.116  22.105   3.560  0.00  0.00     0.061 C 
BRANCH  24  25
HETATM   25  C   MK1     0      12.260  23.385   3.562  0.00  0.00     0.002 C 
BRANCH  25  26
HETATM   26  C   MK1     0      12.291  24.331   4.777  0.00  0.00     0.205 C 
HETATM   27  O   MK1     0      13.346  25.451   4.853  0.00  0.00    -0.170 OA
HETATM   28  N   MK1     0      11.269  24.158   5.915  0.00  0.00    -0.219 NA
BRANCH  28  29
HETATM   29  C   MK1     0      11.301  25.103   7.130  0.00  0.00     0.100 A 
HETATM   30  C   MK1     0      12.421  25.193   8.171  0.00  0.00     0.130 A 
HETATM   31  O   MK1     0      13.711  24.352   8.185  0.00  0.00    -0.193 OA
HETATM   32  C   MK1     0      12.034  26.263   9.194  0.00  0.00     0.077 A 
HETATM   33  C   MK1     0      10.674  26.839   8.790  0.00  0.00    -0.040 A 
HETATM   34  C   MK1     0      10.219  26.118   7.507  0.00  0.00    -0.010 A 
HETATM   35  C   MK1     0       9.784  27.927   9.419  0.00  0.00     0.022 A 
HETATM   36  C   MK1     0       8.874  26.486   6.854  0.00  0.00     0.027 A 
HETATM   37  C   MK1     0       7.984  27.575   7.483  0.00  0.00     0.005 A 
HETATM   38  C   MK1     0       8.439  28.295   8.765  0.00  0.00     0.005 A 
ENDBRANCH  28  29
ENDBRANCH  25  26
BRANCH  25  39
HETATM   39  C   MK1     0      11.372  23.721   2.349  0.00  0.00     0.026 C 
BRANCH  39  40
HETATM   40  C   MK1     0       9.863  23.958   2.541  0.00  0.00     0.004 A 
HETATM   41  C   MK1     0       8.996  22.885   3.225  0.00  0.00     0.000 A 
HETATM   42  C   MK1     0       7.486  23.121   3.417  0.00  0.00     0.000 A 
HETATM   43  C   MK1     0       6.843  24.432   2.926  0.00  0.00     0.000 A 
HETATM   44  C   MK1     0       7.711  25.506   2.242  0.00  0.00     0.000 A 
HETATM   45  C   MK1     0       9.220  25.268   2.050  0.00  0.00     0.000 A 
ENDBRANCH  39  40
ENDBRANCH  25  39
ENDBRANCH  24  25
ENDBRANCH   2  24
TORSDOF 10
ENDMDL
MODEL 4
REMARK VINA RESULT:   -10.244      2.333      5.137
REMARK INTER + INTRA:         -18.532
REMARK INTER:                 -16.476
REMARK INTRA:                  -2.056
REMARK UNBOUND:                -2.299
REMARK  10 active torsions:
REMARK  status: ('A' for Active; 'I' for Inactive)
REMARK    1  A    between atoms: N_5  and  C_13 
REMARK    2  A    between atoms: N_6  and  C_21 
REMARK    3  A    between atoms: N_7  and  C_18 
REMARK       I    between atoms: N_7  and  C_24 
REMARK    4  A    between atoms: C_13  and  C_15 
REMARK    5  A    between atoms: C_15  and  C_16 
REMARK    6  A    between atoms: C_16  and  C_17 
REMARK    7  A    between atoms: C_17  and  C_24 
REMARK    8  A    between atoms: C_17  and  C_25 
REMARK    9  A    between atoms: C_21  and  C_28 
REMARK   10  A    between atoms: C_25  and  C_30 
ROOT
HETATM    1  O   MK1     0       9.706  23.175   2.210  0.00  0.00    -0.221 OA
HETATM    2  C   MK1     0      10.192  24.526   2.768  0.00  0.00     0.178 C 
ENDROOT
BRANCH   2   3
HETATM    3  C   MK1     0       9.289  25.769   2.670  0.00  0.00     0.135 C 
BRANCH   3   4
HETATM    4  N   MK1     0       8.433  26.196   3.876  0.00  0.00    -0.339 N 
HETATM    5  C   MK1     0       6.919  25.914   3.885  0.00  0.00     0.123 A 
HETATM    6  C   MK1     0       6.062  26.340   5.092  0.00  0.00     0.108 A 
HETATM    7  C   MK1     0       6.261  25.204   2.687  0.00  0.00     0.227 A 
HETATM    8  N   MK1     0       6.720  27.049   6.290  0.00  0.00    -0.339 N 
HETATM    9  C   MK1     0       5.144  25.921   4.589  0.00  0.00    -0.089 A 
HETATM   10  C   MK1     0       8.234  27.332   6.281  0.00  0.00     0.126 A 
HETATM   11  C   MK1     0       9.090  26.905   5.075  0.00  0.00     0.126 A 
HETATM   12  C   MK1     0       3.891  25.348   3.902  0.00  0.00     0.134 A 
HETATM   13  N   MK1     0       4.747  24.921   2.694  0.00  0.00    -0.237 NA
HETATM   14  C   MK1     0       2.637  24.775   3.214  0.00  0.00     0.037 C 
HETATM   15  C   MK1     0       3.034  25.775   5.108  0.00  0.00     0.037 C 
HETATM   16  O   MK1     0       7.118  24.778   1.480  0.00  0.00    -0.168 OA
BRANCH   8  17
HETATM   17  C   MK1     0       5.863  27.476   7.497  0.00  0.00     0.104 C 
BRANCH  17  18
HETATM   18  C   MK1     0       4.635  28.381   7.287  0.00  0.00     0.046 A 
HETATM   19  C   MK1     0       3.298  28.036   7.971  0.00  0.00     0.006 A 
HETATM   20  C   MK1     0       2.070  28.940   7.763  0.00  0.00     0.026 A 
HETATM   21  C   MK1     0       2.177  30.190   6.869  0.00  0.00     0.120 A 
HETATM   22  N   MK1     0       3.513  30.536   6.185  0.00  0.00    -0.295 NA
HETATM   23  C   MK1     0       4.742  29.631   6.395  0.00  0.00     0.122 A 
ENDBRANCH  17  18
ENDBRANCH   8  17
ENDBRANCH   3   4
ENDBRANCH   2   3
BRANCH   2  24
HETATM   24  C   MK1     0      11.580  24.633   3.426  0.00  0.00     0.061 C 
BRANCH  24  25
HETATM   25  C   MK1     0      11.898  23.817   4.692  0.00  0.00     0.002 C 
BRANCH  25  26
HETATM   26  C   MK1     0      13.262  23.115   4.833  0.00  0.00     0.205 C 
HETATM   27  O   MK1     0      14.558  23.947   4.837  0.00  0.00    -0.170 OA
HETATM   28  N   MK1     0      13.330  21.583   4.971  0.00  0.00    -0.219 NA
BRANCH  28  29
HETATM   29  C   MK1     0      14.693  20.882   5.112  0.00  0.00     0.100 A 
HETATM   30  C   MK1     0      15.588  20.898   6.355  0.00  0.00     0.130 A 
HETATM   31  O   MK1     0      15.281  21.618   7.681  0.00  0.00    -0.193 OA
HETATM   32  C   MK1     0      16.841  20.073   6.049  0.00  0.00     0.077 A 
HETATM   33  C   MK1     0      16.725  19.545   4.617  0.00  0.00    -0.040 A 
HETATM   34  C   MK1     0      15.391  20.048   4.035  0.00  0.00    -0.010 A 
HETATM   35  C   MK1     0      17.659  18.670   3.759  0.00  0.00     0.022 A 
HETATM   36  C   MK1     0      14.990  19.675   2.595  0.00  0.00     0.027 A 
HETATM   37  C   MK1     0      15.923  18.800   1.737  0.00  0.00     0.005 A 
HETATM   38  C   MK1     0      17.258  18.298   2.319  0.00  0.00     0.005 A 
ENDBRANCH  28  29
ENDBRANCH  25  26
BRANCH  25  39
HETATM   39  C   MK1     0      10.853  23.701   5.818  0.00  0.00     0.026 C 
BRANCH  39  40
HETATM   40  C   MK1     0      11.041  24.492   7.126  0.00  0.00     0.004 A 
HETATM   41  C   MK1     0      12.429  25.042   7.502  0.00  0.00     0.000 A 
HETATM   42  C   MK1     0      12.616  25.832   8.810  0.00  0.00     0.000 A 
HETATM   43  C   MK1     0      11.415  26.072   9.744  0.00  0.00     0.000 A 
HETATM   44  C   MK1     0      10.026  25.521   9.368  0.00  0.00     0.000 A 
HETATM   45  C   MK1     0       9.840  24.731   8.060  0.00  0.00     0.000 A 
ENDBRANCH  39  40
ENDBRANCH  25  39
ENDBRANCH  24  25
ENDBRANCH   2  24
TORSDOF 10
ENDMDL
MODEL 5
REMARK VINA RESULT:    -9.860      2.054      4.351
REMARK INTER + INTRA:         -17.924
REMARK INTER:                 -15.799
REMARK INTRA:                  -2.124
REMARK UNBOUND:                -2.299
REMARK  10 active torsions:
REMARK  status: ('A' for Active; 'I' for Inactive)
REMARK    1  A    between atoms: N_5  and  C_13 
REMARK    2  A    between atoms: N_6  and  C_21 
REMARK    3  A    between atoms: N_7  and  C_18 
REMARK       I    between atoms: N_7  and  C_24 
REMARK    4  A    between atoms: C_13  and  C_15 
REMARK    5  A    between atoms: C_15  and  C_16 
REMARK    6  A    between atoms: C_16  and  C_17 
REMARK    7  A    between atoms: C_17  and  C_24 
REMARK    8  A    between atoms: C_17  and  C_25 
REMARK    9  A    between atoms: C_21  and  C_28 
REMARK   10  A    between atoms: C_25  and  C_30 
ROOT
HETATM    1  O   MK1     0      11.124  24.008   1.599  0.00  0.00    -0.221 OA
HETATM    2  C   MK1     0      10.643  24.322   3.028  0.00  0.00     0.178 C 
ENDROOT
BRANCH   2   3
HETATM    3  C   MK1     0       9.613  25.443   3.264  0.00  0.00     0.135 C 
BRANCH   3   4
HETATM    4  N   MK1     0       8.116  25.102   3.374  0.00  0.00    -0.339 N 
HETATM    5  C   MK1     0       7.201  25.934   4.290  0.00  0.00     0.123 A 
HETATM    6  C   MK1     0       5.703  25.593   4.400  0.00  0.00     0.108 A 
HETATM    7  C   MK1     0       7.783  27.109   5.099  0.00  0.00     0.227 A 
HETATM    8  N   MK1     0       5.120  24.418   3.592  0.00  0.00    -0.339 N 
HETATM    9  C   MK1     0       5.563  26.442   5.129  0.00  0.00    -0.089 A 
HETATM   10  C   MK1     0       6.035  23.586   2.675  0.00  0.00     0.126 A 
HETATM   11  C   MK1     0       7.532  23.927   2.566  0.00  0.00     0.126 A 
HETATM   12  C   MK1     0       5.371  27.600   6.124  0.00  0.00     0.134 A 
HETATM   13  N   MK1     0       6.869  27.942   6.016  0.00  0.00    -0.237 NA
HETATM   14  C   MK1     0       5.179  28.760   7.121  0.00  0.00     0.037 C 
HETATM   15  C   MK1     0       3.873  27.259   6.234  0.00  0.00     0.037 C 
HETATM   16  O   MK1     0       9.281  27.450   4.989  0.00  0.00    -0.168 OA
BRANCH   8  17
HETATM   17  C   MK1     0       3.622  24.077   3.701  0.00  0.00     0.104 C 
BRANCH  17  18
HETATM   18  C   MK1     0       2.564  25.164   3.435  0.00  0.00     0.046 A 
HETATM   19  C   MK1     0       1.327  25.275   4.347  0.00  0.00     0.006 A 
HETATM   20  C   MK1     0       0.269  26.361   4.081  0.00  0.00     0.026 A 
HETATM   21  C   MK1     0       0.446  27.336   2.902  0.00  0.00     0.120 A 
HETATM   22  N   MK1     0       1.682  27.225   1.989  0.00  0.00    -0.295 NA
HETATM   23  C   MK1     0       2.740  26.139   2.256  0.00  0.00     0.122 A 
ENDBRANCH  17  18
ENDBRANCH   8  17
ENDBRANCH   3   4
ENDBRANCH   2   3
BRANCH   2  24
HETATM   24  C   MK1     0      11.190  23.517   4.220  0.00  0.00     0.061 C 
BRANCH  24  25
HETATM   25  C   MK1     0      12.397  24.045   5.017  0.00  0.00     0.002 C 
BRANCH  25  26
HETATM   26  C   MK1     0      13.710  23.240   5.051  0.00  0.00     0.205 C 
HETATM   27  O   MK1     0      15.059  23.961   4.868  0.00  0.00    -0.170 OA
HETATM   28  N   MK1     0      13.674  21.715   5.266  0.00  0.00    -0.219 NA
BRANCH  28  29
HETATM   29  C   MK1     0      14.987  20.912   5.299  0.00  0.00     0.100 A 
HETATM   30  C   MK1     0      15.952  20.815   6.484  0.00  0.00     0.130 A 
HETATM   31  O   MK1     0      15.779  21.505   7.850  0.00  0.00    -0.193 OA
HETATM   32  C   MK1     0      17.119  19.913   6.074  0.00  0.00     0.077 A 
HETATM   33  C   MK1     0      16.879  19.449   4.635  0.00  0.00    -0.040 A 
HETATM   34  C   MK1     0      15.554  20.069   4.154  0.00  0.00    -0.010 A 
HETATM   35  C   MK1     0      17.691  18.541   3.692  0.00  0.00     0.022 A 
HETATM   36  C   MK1     0      15.042  19.782   2.730  0.00  0.00     0.027 A 
HETATM   37  C   MK1     0      15.854  18.874   1.787  0.00  0.00     0.005 A 
HETATM   38  C   MK1     0      17.179  18.253   2.269  0.00  0.00     0.005 A 
ENDBRANCH  28  29
ENDBRANCH  25  26
BRANCH  25  39
HETATM   39  C   MK1     0      12.293  25.378   5.781  0.00  0.00     0.026 C 
BRANCH  39  40
HETATM   40  C   MK1     0      11.581  25.430   7.146  0.00  0.00     0.004 A 
HETATM   41  C   MK1     0      10.104  25.011   7.261  0.00  0.00     0.000 A 
HETATM   42  C   MK1     0       9.392  25.063   8.625  0.00  0.00     0.000 A 
HETATM   43  C   MK1     0      10.158  25.533   9.876  0.00  0.00     0.000 A 
HETATM   44  C   MK1     0      11.636  25.952   9.761  0.00  0.00     0.000 A 
HETATM   45  C   MK1     0      12.347  25.900   8.397  0.00  0.00     0.000 A 
ENDBRANCH  39  40
ENDBRANCH  25  39
ENDBRANCH  24  25
ENDBRANCH   2  24
TORSDOF 10
ENDMDL
MODEL 6
REMARK VINA RESULT:    -9.792      3.686     11.810
REMARK INTER + INTRA:         -17.814
REMARK INTER:                 -15.884
REMARK INTRA:                  -1.931
REMARK UNBOUND:                -2.299
REMARK  10 active torsions:
REMARK  status: ('A' for Active; 'I' for Inactive)
REMARK    1  A    between atoms: N_5  and  C_13 
REMARK    2  A    between atoms: N_6  and  C_21 
REMARK    3  A    between atoms: N_7  and  C_18 
REMARK       I    between atoms: N_7  and  C_24 
REMARK    4  A    between atoms: C_13  and  C_15 
REMARK    5  A    between atoms: C_15  and  C_16 
REMARK    6  A    between atoms: C_16  and  C_17 
REMARK    7  A    between atoms: C_17  and  C_24 
REMARK    8  A    between atoms: C_17  and  C_25 
REMARK    9  A    between atoms: C_21  and  C_28 
REMARK   10  A    between atoms: C_25  and  C_30 
ROOT
HETATM    1  O   MK1     0      16.853  23.381   8.652  0.00  0.00    -0.221 OA
HETATM    2  C   MK1     0      17.003  21.912   8.215  0.00  0.00     0.178 C 
ENDROOT
BRANCH   2   3
HETATM    3  C   MK1     0      18.352  21.191   8.393  0.00  0.00     0.135 C 
BRANCH   3   4
HETATM    4  N   MK1     0      18.417  19.860   9.165  0.00  0.00    -0.339 N 
HETATM    5  C   MK1     0      18.602  18.535   8.403  0.00  0.00     0.123 A 
HETATM    6  C   MK1     0      18.666  17.204   9.175  0.00  0.00     0.108 A 
HETATM    7  C   MK1     0      18.722  18.540   6.867  0.00  0.00     0.227 A 
HETATM    8  N   MK1     0      18.546  17.199  10.711  0.00  0.00    -0.339 N 
HETATM    9  C   MK1     0      18.795  16.647   8.204  0.00  0.00    -0.089 A 
HETATM   10  C   MK1     0      18.361  18.524  11.473  0.00  0.00     0.126 A 
HETATM   11  C   MK1     0      18.297  19.855  10.701  0.00  0.00     0.126 A 
HETATM   12  C   MK1     0      18.971  15.885   6.878  0.00  0.00     0.134 A 
HETATM   13  N   MK1     0      18.907  17.215   6.104  0.00  0.00    -0.237 NA
HETATM   14  C   MK1     0      19.148  15.122   5.550  0.00  0.00     0.037 C 
HETATM   15  C   MK1     0      19.036  14.554   7.650  0.00  0.00     0.037 C 
HETATM   16  O   MK1     0      18.657  19.871   6.095  0.00  0.00    -0.168 OA
BRANCH   8  17
HETATM   17  C   MK1     0      18.611  15.868  11.483  0.00  0.00     0.104 C 
BRANCH  17  18
HETATM   18  C   MK1     0      17.449  15.457  12.407  0.00  0.00     0.046 A 
HETATM   19  C   MK1     0      16.022  15.959  12.120  0.00  0.00     0.006 A 
HETATM   20  C   MK1     0      14.860  15.548  13.042  0.00  0.00     0.026 A 
HETATM   21  C   MK1     0      15.125  14.634  14.254  0.00  0.00     0.120 A 
HETATM   22  N   MK1     0      16.552  14.131  14.541  0.00  0.00    -0.295 NA
HETATM   23  C   MK1     0      17.714  14.543  13.617  0.00  0.00     0.122 A 
ENDBRANCH  17  18
ENDBRANCH   8  17
ENDBRANCH   3   4
ENDBRANCH   2   3
BRANCH   2  24
HETATM   24  C   MK1     0      15.806  21.165   7.599  0.00  0.00     0.061 C 
BRANCH  24  25
HETATM   25  C   MK1     0      15.147  21.694   6.312  0.00  0.00     0.002 C 
BRANCH  25  26
HETATM   26  C   MK1     0      13.849  22.518   6.394  0.00  0.00     0.205 C 
HETATM   27  O   MK1     0      12.722  22.086   7.351  0.00  0.00    -0.170 OA
HETATM   28  N   MK1     0      13.676  23.774   5.519  0.00  0.00    -0.219 NA
BRANCH  28  29
HETATM   29  C   MK1     0      12.379  24.598   5.602  0.00  0.00     0.100 A 
HETATM   30  C   MK1     0      11.359  24.784   4.474  0.00  0.00     0.130 A 
HETATM   31  O   MK1     0      11.454  24.181   3.061  0.00  0.00    -0.193 OA
HETATM   32  C   MK1     0      10.229  25.675   4.998  0.00  0.00     0.077 A 
HETATM   33  C   MK1     0      10.546  26.042   6.449  0.00  0.00    -0.040 A 
HETATM   34  C   MK1     0      11.882  25.373   6.825  0.00  0.00    -0.010 A 
HETATM   35  C   MK1     0       9.797  26.900   7.486  0.00  0.00     0.022 A 
HETATM   36  C   MK1     0      12.467  25.561   8.237  0.00  0.00     0.027 A 
HETATM   37  C   MK1     0      11.717  26.418   9.274  0.00  0.00     0.005 A 
HETATM   38  C   MK1     0      10.382  27.088   8.898  0.00  0.00     0.005 A 
ENDBRANCH  28  29
ENDBRANCH  25  26
BRANCH  25  39
HETATM   39  C   MK1     0      15.786  21.399   4.942  0.00  0.00     0.026 C 
BRANCH  39  40
HETATM   40  C   MK1     0      15.404  20.121   4.173  0.00  0.00     0.004 A 
HETATM   41  C   MK1     0      15.023  20.202   2.684  0.00  0.00     0.000 A 
HETATM   42  C   MK1     0      14.641  18.924   1.915  0.00  0.00     0.000 A 
HETATM   43  C   MK1     0      14.639  17.563   2.636  0.00  0.00     0.000 A 
HETATM   44  C   MK1     0      15.020  17.481   4.127  0.00  0.00     0.000 A 
HETATM   45  C   MK1     0      15.402  18.760   4.895  0.00  0.00     0.000 A 
ENDBRANCH  39  40
ENDBRANCH  25  39
ENDBRANCH  24  25
ENDBRANCH   2  24
TORSDOF 10
ENDMDL
MODEL 7
REMARK VINA RESULT:    -9.711      2.647     11.168
REMARK INTER + INTRA:         -17.686
REMARK INTER:                 -15.830
REMARK INTRA:                  -1.856
REMARK UNBOUND:                -2.299
REMARK  10 active torsions:
REMARK  status: ('A' for Active; 'I' for Inactive)
REMARK    1  A    between atoms: N_5  and  C_13 
REMARK    2  A    between atoms: N_6  and  C_21 
REMARK    3  A    between atoms: N_7  and  C_18 
REMARK       I    between atoms: N_7  and  C_24 
REMARK    4  A    between atoms: C_13  and  C_15 
REMARK    5  A    between atoms: C_15  and  C_16 
REMARK    6  A    between atoms: C_16  and  C_17 
REMARK    7  A    between atoms: C_17  and  C_24 
REMARK    8  A    between atoms: C_17  and  C_25 
REMARK    9  A    between atoms: C_21  and  C_28 
REMARK   10  A    between atoms: C_25  and  C_30 
ROOT
HETATM    1  O   MK1     0      14.469  21.802   9.305  0.00  0.00    -0.221 OA
HETATM    2  C   MK1     0      14.635  22.571   7.981  0.00  0.00     0.178 C 
ENDROOT
BRANCH   2   3
HETATM    3  C   MK1     0      15.081  21.826   6.709  0.00  0.00     0.135 C 
BRANCH   3   4
HETATM    4  N   MK1     0      16.195  20.766   6.788  0.00  0.00    -0.339 N 
HETATM    5  C   MK1     0      16.504  19.880   5.567  0.00  0.00     0.123 A 
HETATM    6  C   MK1     0      17.619  18.820   5.646  0.00  0.00     0.108 A 
HETATM    7  C   MK1     0      15.698  20.053   4.266  0.00  0.00     0.227 A 
HETATM    8  N   MK1     0      18.425  18.647   6.947  0.00  0.00    -0.339 N 
HETATM    9  C   MK1     0      17.409  18.519   4.580  0.00  0.00    -0.089 A 
HETATM   10  C   MK1     0      18.116  19.533   8.168  0.00  0.00     0.126 A 
HETATM   11  C   MK1     0      17.002  20.592   8.089  0.00  0.00     0.126 A 
HETATM   12  C   MK1     0      17.122  18.108   3.125  0.00  0.00     0.134 A 
HETATM   13  N   MK1     0      16.007  19.167   3.045  0.00  0.00    -0.237 NA
HETATM   14  C   MK1     0      16.834  17.696   1.668  0.00  0.00     0.037 C 
HETATM   15  C   MK1     0      18.236  17.048   3.204  0.00  0.00     0.037 C 
HETATM   16  O   MK1     0      14.584  21.113   4.187  0.00  0.00    -0.168 OA
BRANCH   8  17
HETATM   17  C   MK1     0      19.540  17.587   7.026  0.00  0.00     0.104 C 
BRANCH  17  18
HETATM   18  C   MK1     0      19.195  16.134   7.403  0.00  0.00     0.046 A 
HETATM   19  C   MK1     0      18.829  15.781   8.856  0.00  0.00     0.006 A 
HETATM   20  C   MK1     0      18.484  14.329   9.234  0.00  0.00     0.026 A 
HETATM   21  C   MK1     0      18.506  13.228   8.156  0.00  0.00     0.120 A 
HETATM   22  N   MK1     0      18.873  13.581   6.702  0.00  0.00    -0.295 NA
HETATM   23  C   MK1     0      19.217  15.034   6.326  0.00  0.00     0.122 A 
ENDBRANCH  17  18
ENDBRANCH   8  17
ENDBRANCH   3   4
ENDBRANCH   2   3
BRANCH   2  24
HETATM   24  C   MK1     0      14.355  24.084   7.928  0.00  0.00     0.061 C 
BRANCH  24  25
HETATM   25  C   MK1     0      12.905  24.597   7.863  0.00  0.00     0.002 C 
BRANCH  25  26
HETATM   26  C   MK1     0      11.992  24.182   6.694  0.00  0.00     0.205 C 
HETATM   27  O   MK1     0      11.388  22.766   6.654  0.00  0.00    -0.170 OA
HETATM   28  N   MK1     0      11.684  25.183   5.564  0.00  0.00    -0.219 NA
BRANCH  28  29
HETATM   29  C   MK1     0      10.772  24.767   4.396  0.00  0.00     0.100 A 
HETATM   30  C   MK1     0      11.158  23.840   3.239  0.00  0.00     0.130 A 
HETATM   31  O   MK1     0      12.526  23.161   3.043  0.00  0.00    -0.193 OA
HETATM   32  C   MK1     0       9.947  23.707   2.312  0.00  0.00     0.077 A 
HETATM   33  C   MK1     0       8.808  24.550   2.892  0.00  0.00    -0.040 A 
HETATM   34  C   MK1     0       9.321  25.209   4.186  0.00  0.00    -0.010 A 
HETATM   35  C   MK1     0       7.367  24.808   2.415  0.00  0.00     0.022 A 
HETATM   36  C   MK1     0       8.392  26.126   5.003  0.00  0.00     0.027 A 
HETATM   37  C   MK1     0       6.951  26.385   4.526  0.00  0.00     0.005 A 
HETATM   38  C   MK1     0       6.438  25.726   3.232  0.00  0.00     0.005 A 
ENDBRANCH  28  29
ENDBRANCH  25  26
BRANCH  25  39
HETATM   39  C   MK1     0      12.365  25.525   8.967  0.00  0.00     0.026 C 
BRANCH  39  40
HETATM   40  C   MK1     0      10.931  26.079   8.876  0.00  0.00     0.004 A 
HETATM   41  C   MK1     0      10.699  27.578   8.615  0.00  0.00     0.000 A 
HETATM   42  C   MK1     0       9.265  28.132   8.523  0.00  0.00     0.000 A 
HETATM   43  C   MK1     0       8.062  27.185   8.692  0.00  0.00     0.000 A 
HETATM   44  C   MK1     0       8.294  25.684   8.954  0.00  0.00     0.000 A 
HETATM   45  C   MK1     0       9.728  25.132   9.045  0.00  0.00     0.000 A 
ENDBRANCH  39  40
ENDBRANCH  25  39
ENDBRANCH  24  25
ENDBRANCH   2  24
TORSDOF 10
ENDMDL
MODEL 8
REMARK VINA RESULT:    -9.389      1.604      4.239
REMARK INTER + INTRA:         -17.176
REMARK INTER:                 -15.406
REMARK INTRA:                  -1.770
REMARK UNBOUND:                -2.299
REMARK  10 active torsions:
REMARK  status: ('A' for Active; 'I' for Inactive)
REMARK    1  A    between atoms: N_5  and  C_13 
REMARK    2  A    between atoms: N_6  and  C_21 
REMARK    3  A    between atoms: N_7  and  C_18 
REMARK       I    between atoms: N_7  and  C_24 
REMARK    4  A    between atoms: C_13  and  C_15 
REMARK    5  A    between atoms: C_15  and  C_16 
REMARK    6  A    between atoms: C_16  and  C_17 
REMARK    7  A    between atoms: C_17  and  C_24 
REMARK    8  A    between atoms: C_17  and  C_25 
REMARK    9  A    between atoms: C_21  and  C_28 
REMARK   10  A    between atoms: C_25  and  C_30 
ROOT
HETATM    1  O   MK1     0      10.952  22.110   4.229  0.00  0.00    -0.221 OA
HETATM    2  C   MK1     0      11.935  23.173   3.705  0.00  0.00     0.178 C 
ENDROOT
BRANCH   2   3
HETATM    3  C   MK1     0      11.574  24.668   3.797  0.00  0.00     0.135 C 
BRANCH   3   4
HETATM    4  N   MK1     0      10.101  25.096   3.929  0.00  0.00    -0.339 N 
HETATM    5  C   MK1     0       9.629  25.853   5.185  0.00  0.00     0.123 A 
HETATM    6  C   MK1     0       8.156  26.282   5.318  0.00  0.00     0.108 A 
HETATM    7  C   MK1     0      10.631  26.180   6.309  0.00  0.00     0.227 A 
HETATM    8  N   MK1     0       7.155  25.954   4.195  0.00  0.00    -0.339 N 
HETATM    9  C   MK1     0       8.380  26.739   6.324  0.00  0.00    -0.089 A 
HETATM   10  C   MK1     0       7.627  25.198   2.939  0.00  0.00     0.126 A 
HETATM   11  C   MK1     0       9.100  24.769   2.806  0.00  0.00     0.126 A 
HETATM   12  C   MK1     0       8.686  27.365   7.697  0.00  0.00     0.134 A 
HETATM   13  N   MK1     0      10.159  26.936   7.565  0.00  0.00    -0.237 NA
HETATM   14  C   MK1     0       8.992  27.991   9.072  0.00  0.00     0.037 C 
HETATM   15  C   MK1     0       7.212  27.794   7.830  0.00  0.00     0.037 C 
HETATM   16  O   MK1     0      12.104  25.751   6.176  0.00  0.00    -0.168 OA
BRANCH   8  17
HETATM   17  C   MK1     0       5.681  26.383   4.328  0.00  0.00     0.104 C 
BRANCH  17  18
HETATM   18  C   MK1     0       4.559  25.439   3.859  0.00  0.00     0.046 A 
HETATM   19  C   MK1     0       4.412  24.043   4.492  0.00  0.00     0.006 A 
HETATM   20  C   MK1     0       3.290  23.098   4.023  0.00  0.00     0.026 A 
HETATM   21  C   MK1     0       2.314  23.550   2.920  0.00  0.00     0.120 A 
HETATM   22  N   MK1     0       2.461  24.946   2.287  0.00  0.00    -0.295 NA
HETATM   23  C   MK1     0       3.584  25.890   2.756  0.00  0.00     0.122 A 
ENDBRANCH  17  18
ENDBRANCH   8  17
ENDBRANCH   3   4
ENDBRANCH   2   3
BRANCH   2  24
HETATM   24  C   MK1     0      13.280  22.743   3.091  0.00  0.00     0.061 C 
BRANCH  24  25
HETATM   25  C   MK1     0      14.005  21.493   3.622  0.00  0.00     0.002 C 
BRANCH  25  26
HETATM   26  C   MK1     0      14.226  21.316   5.136  0.00  0.00     0.205 C 
HETATM   27  O   MK1     0      13.109  20.718   6.012  0.00  0.00    -0.170 OA
HETATM   28  N   MK1     0      15.563  21.736   5.774  0.00  0.00    -0.219 NA
BRANCH  28  29
HETATM   29  C   MK1     0      15.783  21.559   7.287  0.00  0.00     0.100 A 
HETATM   30  C   MK1     0      15.088  22.354   8.397  0.00  0.00     0.130 A 
HETATM   31  O   MK1     0      14.046  23.470   8.192  0.00  0.00    -0.193 OA
HETATM   32  C   MK1     0      15.609  21.846   9.743  0.00  0.00     0.077 A 
HETATM   33  C   MK1     0      16.627  20.736   9.472  0.00  0.00    -0.040 A 
HETATM   34  C   MK1     0      16.736  20.558   7.946  0.00  0.00    -0.010 A 
HETATM   35  C   MK1     0      17.476  19.859  10.412  0.00  0.00     0.022 A 
HETATM   36  C   MK1     0      17.693  19.503   7.360  0.00  0.00     0.027 A 
HETATM   37  C   MK1     0      18.541  18.625   8.300  0.00  0.00     0.005 A 
HETATM   38  C   MK1     0      18.432  18.804   9.826  0.00  0.00     0.005 A 
ENDBRANCH  28  29
ENDBRANCH  25  26
BRANCH  25  39
HETATM   39  C   MK1     0      14.509  20.419   2.640  0.00  0.00     0.026 C 
BRANCH  39  40
HETATM   40  C   MK1     0      15.456  19.309   3.133  0.00  0.00     0.004 A 
HETATM   41  C   MK1     0      15.020  18.376   4.278  0.00  0.00     0.000 A 
HETATM   42  C   MK1     0      15.967  17.266   4.771  0.00  0.00     0.000 A 
HETATM   43  C   MK1     0      17.351  17.089   4.119  0.00  0.00     0.000 A 
HETATM   44  C   MK1     0      17.788  18.023   2.974  0.00  0.00     0.000 A 
HETATM   45  C   MK1     0      16.840  19.132   2.482  0.00  0.00     0.000 A 
ENDBRANCH  39  40
ENDBRANCH  25  39
ENDBRANCH  24  25
ENDBRANCH   2  24
TORSDOF 10
ENDMDL
MODEL 9
REMARK VINA RESULT:    -9.348      3.729     12.132
REMARK INTER + INTRA:         -17.111
REMARK INTER:                 -14.971
REMARK INTRA:                  -2.140
REMARK UNBOUND:                -2.299
REMARK  10 active torsions:
REMARK  status: ('A' for Active; 'I' for Inactive)
REMARK    1  A    between atoms: N_5  and  C_13 
REMARK    2  A    between atoms: N_6  and  C_21 
REMARK    3  A    between atoms: N_7  and  C_18 
REMARK       I    between atoms: N_7  and  C_24 
REMARK    4  A    between atoms: C_13  and  C_15 
REMARK    5  A    between atoms: C_15  and  C_16 
REMARK    6  A    between atoms: C_16  and  C_17 
REMARK    7  A    between atoms: C_17  and  C_24 
REMARK    8  A    between atoms: C_17  and  C_25 
REMARK    9  A    between atoms: C_21  and  C_28 
REMARK   10  A    between atoms: C_25  and  C_30 
ROOT
HETATM    1  O   MK1     0      16.116  21.258   9.728  0.00  0.00    -0.221 OA
HETATM    2  C   MK1     0      16.878  21.489   8.410  0.00  0.00     0.178 C 
ENDROOT
BRANCH   2   3
HETATM    3  C   MK1     0      18.276  20.876   8.211  0.00  0.00     0.135 C 
BRANCH   3   4
HETATM    4  N   MK1     0      18.439  19.578   7.399  0.00  0.00    -0.339 N 
HETATM    5  C   MK1     0      18.652  18.237   8.126  0.00  0.00     0.123 A 
HETATM    6  C   MK1     0      18.815  16.938   7.315  0.00  0.00     0.108 A 
HETATM    7  C   MK1     0      18.703  18.194   9.665  0.00  0.00     0.227 A 
HETATM    8  N   MK1     0      18.765  16.980   5.776  0.00  0.00    -0.339 N 
HETATM    9  C   MK1     0      18.927  16.353   8.272  0.00  0.00    -0.089 A 
HETATM   10  C   MK1     0      18.551  18.321   5.049  0.00  0.00     0.126 A 
HETATM   11  C   MK1     0      18.389  19.619   5.861  0.00  0.00     0.126 A 
HETATM   12  C   MK1     0      19.079  15.555   9.580  0.00  0.00     0.134 A 
HETATM   13  N   MK1     0      18.916  16.853  10.392  0.00  0.00    -0.237 NA
HETATM   14  C   MK1     0      19.231  14.756  10.888  0.00  0.00     0.037 C 
HETATM   15  C   MK1     0      19.242  14.256   8.768  0.00  0.00     0.037 C 
HETATM   16  O   MK1     0      18.540  19.493  10.476  0.00  0.00    -0.168 OA
BRANCH   8  17
HETATM   17  C   MK1     0      18.928  15.681   4.964  0.00  0.00     0.104 C 
BRANCH  17  18
HETATM   18  C   MK1     0      20.161  14.785   5.184  0.00  0.00     0.046 A 
HETATM   19  C   MK1     0      21.565  15.414   5.262  0.00  0.00     0.006 A 
HETATM   20  C   MK1     0      22.798  14.520   5.482  0.00  0.00     0.026 A 
HETATM   21  C   MK1     0      22.628  12.995   5.624  0.00  0.00     0.120 A 
HETATM   22  N   MK1     0      21.224  12.366   5.546  0.00  0.00    -0.295 NA
HETATM   23  C   MK1     0      19.991  13.262   5.326  0.00  0.00     0.122 A 
ENDBRANCH  17  18
ENDBRANCH   8  17
ENDBRANCH   3   4
ENDBRANCH   2   3
BRANCH   2  24
HETATM   24  C   MK1     0      16.241  22.332   7.290  0.00  0.00     0.061 C 
BRANCH  24  25
HETATM   25  C   MK1     0      14.912  21.888   6.651  0.00  0.00     0.002 C 
BRANCH  25  26
HETATM   26  C   MK1     0      13.868  22.941   6.235  0.00  0.00     0.205 C 
HETATM   27  O   MK1     0      14.268  24.090   5.291  0.00  0.00    -0.170 OA
HETATM   28  N   MK1     0      12.424  22.844   6.763  0.00  0.00    -0.219 NA
BRANCH  28  29
HETATM   29  C   MK1     0      11.381  23.897   6.347  0.00  0.00     0.100 A 
HETATM   30  C   MK1     0      10.529  23.865   5.074  0.00  0.00     0.130 A 
HETATM   31  O   MK1     0      10.569  22.775   3.987  0.00  0.00    -0.193 OA
HETATM   32  C   MK1     0       9.633  25.106   5.070  0.00  0.00     0.077 A 
HETATM   33  C   MK1     0       9.927  25.909   6.340  0.00  0.00    -0.040 A 
HETATM   34  C   MK1     0      11.012  25.158   7.133  0.00  0.00    -0.010 A 
HETATM   35  C   MK1     0       9.350  27.229   6.885  0.00  0.00     0.022 A 
HETATM   36  C   MK1     0      11.521  25.726   8.471  0.00  0.00     0.027 A 
HETATM   37  C   MK1     0      10.944  27.047   9.016  0.00  0.00     0.005 A 
HETATM   38  C   MK1     0       9.859  27.798   8.223  0.00  0.00     0.005 A 
ENDBRANCH  28  29
ENDBRANCH  25  26
BRANCH  25  39
HETATM   39  C   MK1     0      14.626  20.391   6.428  0.00  0.00     0.026 C 
BRANCH  39  40
HETATM   40  C   MK1     0      14.787  19.777   5.025  0.00  0.00     0.004 A 
HETATM   41  C   MK1     0      14.948  18.254   4.864  0.00  0.00     0.000 A 
HETATM   42  C   MK1     0      15.109  17.640   3.461  0.00  0.00     0.000 A 
HETATM   43  C   MK1     0      15.109  18.550   2.218  0.00  0.00     0.000 A 
HETATM   44  C   MK1     0      14.948  20.074   2.379  0.00  0.00     0.000 A 
HETATM   45  C   MK1     0      14.787  20.686   3.782  0.00  0.00     0.000 A 
ENDBRANCH  39  40
ENDBRANCH  25  39
ENDBRANCH  24  25
ENDBRANCH   2  24
TORSDOF 10
ENDMDL
