MODEL 1
REMARK VINA RESULT:    -6.313      0.000      0.000
REMARK INTER + INTRA:         -12.874
REMARK INTER:                 -10.003
REMARK INTRA:                  -2.871
REMARK UNBOUND:                -2.871
REMARK  10 active torsions:
REMARK  status: ('A' for Active; 'I' for Inactive)
REMARK    1  A    between atoms: N_5  and  C_13 
REMARK    2  A    between atoms: N_6  and  C_21 
REMARK    3  A    between atoms: N_7  and  C_18 
REMARK       I    between atoms: N_7  and  C_24 
REMARK    4  A    between atoms: C_13  and  C_15 
REMARK    5  A    between atoms: C_15  and  C_16 
REMARK    6  A    between atoms: C_16  and  C_17 
REMARK    7  A    between atoms: C_17  and  C_24 
REMARK    8  A    between atoms: C_17  and  C_25 
REMARK    9  A    between atoms: C_21  and  C_28 
REMARK   10  A    between atoms: C_25  and  C_30 
ROOT
HETATM    1  O   MK1     0       9.714  44.025  28.386  0.00  0.00    -0.221 OA
HETATM    2  C   MK1     0      10.384  43.868  27.008  0.00  0.00     0.178 C 
ENDROOT
BRANCH   2   3
HETATM    3  C   MK1     0      10.917  45.108  26.266  0.00  0.00     0.135 C 
BRANCH   3   4
HETATM    4  N   MK1     0      12.210  45.011  25.437  0.00  0.00    -0.339 N 
HETATM    5  C   MK1     0      12.163  45.204  23.910  0.00  0.00     0.123 A 
HETATM    6  C   MK1     0      13.457  45.108  23.080  0.00  0.00     0.108 A 
HETATM    7  C   MK1     0      10.822  45.495  23.211  0.00  0.00     0.227 A 
HETATM    8  N   MK1     0      14.799  44.817  23.779  0.00  0.00    -0.339 N 
HETATM    9  C   MK1     0      12.870  45.312  22.140  0.00  0.00    -0.089 A 
HETATM   10  C   MK1     0      14.846  44.624  25.306  0.00  0.00     0.126 A 
HETATM   11  C   MK1     0      13.552  44.721  26.135  0.00  0.00     0.126 A 
HETATM   12  C   MK1     0      12.068  45.592  20.856  0.00  0.00     0.134 A 
HETATM   13  N   MK1     0      10.774  45.688  21.684  0.00  0.00    -0.237 NA
HETATM   14  C   MK1     0      11.266  45.871  19.570  0.00  0.00     0.037 C 
HETATM   15  C   MK1     0      13.363  45.495  20.026  0.00  0.00     0.037 C 
HETATM   16  O   MK1     0       9.528  45.592  24.041  0.00  0.00    -0.168 OA
BRANCH   8  17
HETATM   17  C   MK1     0      16.093  44.721  22.949  0.00  0.00     0.104 C 
BRANCH  17  18
HETATM   18  C   MK1     0      16.999  43.481  23.076  0.00  0.00     0.046 A 
HETATM   19  C   MK1     0      16.396  42.070  22.943  0.00  0.00     0.006 A 
HETATM   20  C   MK1     0      17.299  40.831  23.070  0.00  0.00     0.026 A 
HETATM   21  C   MK1     0      18.809  41.002  23.330  0.00  0.00     0.120 A 
HETATM   22  N   MK1     0      19.412  42.413  23.463  0.00  0.00    -0.295 NA
HETATM   23  C   MK1     0      18.506  43.652  23.336  0.00  0.00     0.122 A 
ENDBRANCH  17  18
ENDBRANCH   8  17
ENDBRANCH   3   4
ENDBRANCH   2   3
BRANCH   2  24
HETATM   24  C   MK1     0      10.521  42.473  26.373  0.00  0.00     0.061 C 
BRANCH  24  25
HETATM   25  C   MK1     0      10.068  42.240  24.920  0.00  0.00     0.002 C 
BRANCH  25  26
HETATM   26  C   MK1     0       8.569  42.281  24.565  0.00  0.00     0.205 C 
HETATM   27  O   MK1     0       8.116  42.852  23.208  0.00  0.00    -0.170 OA
HETATM   28  N   MK1     0       7.525  41.753  25.566  0.00  0.00    -0.219 NA
BRANCH  28  29
HETATM   29  C   MK1     0       6.028  41.795  25.210  0.00  0.00     0.100 A 
HETATM   30  C   MK1     0       4.967  42.667  25.888  0.00  0.00     0.130 A 
HETATM   31  O   MK1     0       5.212  43.655  27.043  0.00  0.00    -0.193 OA
HETATM   32  C   MK1     0       3.620  42.385  25.216  0.00  0.00     0.077 A 
HETATM   33  C   MK1     0       3.844  41.338  24.122  0.00  0.00    -0.040 A 
HETATM   34  C   MK1     0       5.340  40.972  24.118  0.00  0.00    -0.010 A 
HETATM   35  C   MK1     0       2.884  40.666  23.123  0.00  0.00     0.022 A 
HETATM   36  C   MK1     0       5.875  39.932  23.116  0.00  0.00     0.027 A 
HETATM   37  C   MK1     0       4.915  39.260  22.117  0.00  0.00     0.005 A 
HETATM   38  C   MK1     0       3.420  39.626  22.120  0.00  0.00     0.005 A 
ENDBRANCH  28  29
ENDBRANCH  25  26
BRANCH  25  39
HETATM   39  C   MK1     0      11.111  41.965  23.821  0.00  0.00     0.026 C 
BRANCH  39  40
HETATM   40  C   MK1     0      12.255  40.966  24.077  0.00  0.00     0.004 A 
HETATM   41  C   MK1     0      13.299  41.254  25.170  0.00  0.00     0.000 A 
HETATM   42  C   MK1     0      14.442  40.254  25.427  0.00  0.00     0.000 A 
HETATM   43  C   MK1     0      14.541  38.966  24.589  0.00  0.00     0.000 A 
HETATM   44  C   MK1     0      13.495  38.678  23.494  0.00  0.00     0.000 A 
HETATM   45  C   MK1     0      12.353  39.677  23.239  0.00  0.00     0.000 A 
ENDBRANCH  39  40
ENDBRANCH  25  39
ENDBRANCH  24  25
ENDBRANCH   2  24
TORSDOF 10
ENDMDL
MODEL 2
REMARK VINA RESULT:    -6.096      3.342      8.672
REMARK INTER + INTRA:         -12.530
REMARK INTER:                  -8.718
REMARK INTRA:                  -3.812
REMARK UNBOUND:                -2.871
REMARK  10 active torsions:
REMARK  status: ('A' for Active; 'I' for Inactive)
REMARK    1  A    between atoms: N_5  and  C_13 
REMARK    2  A    between atoms: N_6  and  C_21 
REMARK    3  A    between atoms: N_7  and  C_18 
REMARK       I    between atoms: N_7  and  C_24 
REMARK    4  A    between atoms: C_13  and  C_15 
REMARK    5  A    between atoms: C_15  and  C_16 
REMARK    6  A    between atoms: C_16  and  C_17 
REMARK    7  A    between atoms: C_17  and  C_24 
REMARK    8  A    between atoms: C_17  and  C_25 
REMARK    9  A    between atoms: C_21  and  C_28 
REMARK   10  A    between atoms: C_25  and  C_30 
ROOT
HETATM    1  O   MK1     0      16.563  45.687  28.591  0.00  0.00    -0.221 OA
HETATM    2  C   MK1     0      15.185  45.352  27.990  0.00  0.00     0.178 C 
ENDROOT
BRANCH   2   3
HETATM    3  C   MK1     0      14.416  46.418  27.188  0.00  0.00     0.135 C 
BRANCH   3   4
HETATM    4  N   MK1     0      13.033  46.087  26.597  0.00  0.00    -0.339 N 
HETATM    5  C   MK1     0      12.879  45.854  25.082  0.00  0.00     0.123 A 
HETATM    6  C   MK1     0      11.497  45.522  24.490  0.00  0.00     0.108 A 
HETATM    7  C   MK1     0      14.108  45.952  24.159  0.00  0.00     0.227 A 
HETATM    8  N   MK1     0      10.268  45.424  25.413  0.00  0.00    -0.339 N 
HETATM    9  C   MK1     0      11.952  45.465  23.460  0.00  0.00    -0.089 A 
HETATM   10  C   MK1     0      10.422  45.657  26.927  0.00  0.00     0.126 A 
HETATM   11  C   MK1     0      11.804  45.989  27.519  0.00  0.00     0.126 A 
HETATM   12  C   MK1     0      12.572  45.387  22.053  0.00  0.00     0.134 A 
HETATM   13  N   MK1     0      13.955  45.719  22.644  0.00  0.00    -0.237 NA
HETATM   14  C   MK1     0      13.194  45.310  20.645  0.00  0.00     0.037 C 
HETATM   15  C   MK1     0      11.190  45.056  21.461  0.00  0.00     0.037 C 
HETATM   16  O   MK1     0      15.491  46.284  24.751  0.00  0.00    -0.168 OA
BRANCH   8  17
HETATM   17  C   MK1     0       8.885  45.092  24.820  0.00  0.00     0.104 C 
BRANCH  17  18
HETATM   18  C   MK1     0       8.611  43.691  24.243  0.00  0.00     0.046 A 
HETATM   19  C   MK1     0       9.462  42.491  24.699  0.00  0.00     0.006 A 
HETATM   20  C   MK1     0       9.188  41.090  24.122  0.00  0.00     0.026 A 
HETATM   21  C   MK1     0       8.063  40.888  23.090  0.00  0.00     0.120 A 
HETATM   22  N   MK1     0       7.212  42.088  22.635  0.00  0.00    -0.295 NA
HETATM   23  C   MK1     0       7.486  43.490  23.212  0.00  0.00     0.122 A 
ENDBRANCH  17  18
ENDBRANCH   8  17
ENDBRANCH   3   4
ENDBRANCH   2   3
BRANCH   2  24
HETATM   24  C   MK1     0      14.576  43.953  28.191  0.00  0.00     0.061 C 
BRANCH  24  25
HETATM   25  C   MK1     0      14.936  42.810  27.223  0.00  0.00     0.002 C 
BRANCH  25  26
HETATM   26  C   MK1     0      16.315  42.787  26.538  0.00  0.00     0.205 C 
HETATM   27  O   MK1     0      17.506  42.096  27.228  0.00  0.00    -0.170 OA
HETATM   28  N   MK1     0      16.503  43.455  25.163  0.00  0.00    -0.219 NA
BRANCH  28  29
HETATM   29  C   MK1     0      17.881  43.432  24.478  0.00  0.00     0.100 A 
HETATM   30  C   MK1     0      18.977  44.492  24.625  0.00  0.00     0.130 A 
HETATM   31  O   MK1     0      18.892  45.766  25.485  0.00  0.00    -0.193 OA
HETATM   32  C   MK1     0      20.172  44.063  23.770  0.00  0.00     0.077 A 
HETATM   33  C   MK1     0      19.819  42.737  23.090  0.00  0.00    -0.040 A 
HETATM   34  C   MK1     0      18.396  42.345  23.530  0.00  0.00    -0.010 A 
HETATM   35  C   MK1     0      20.604  41.829  22.126  0.00  0.00     0.022 A 
HETATM   36  C   MK1     0      17.759  41.045  23.005  0.00  0.00     0.027 A 
HETATM   37  C   MK1     0      18.544  40.136  22.041  0.00  0.00     0.005 A 
HETATM   38  C   MK1     0      19.967  40.528  21.601  0.00  0.00     0.005 A 
ENDBRANCH  28  29
ENDBRANCH  25  26
BRANCH  25  39
HETATM   39  C   MK1     0      13.917  41.690  26.941  0.00  0.00     0.026 C 
BRANCH  39  40
HETATM   40  C   MK1     0      13.772  41.123  25.516  0.00  0.00     0.004 A 
HETATM   41  C   MK1     0      13.076  41.955  24.423  0.00  0.00     0.000 A 
HETATM   42  C   MK1     0      12.931  41.388  22.999  0.00  0.00     0.000 A 
HETATM   43  C   MK1     0      13.481  39.989  22.667  0.00  0.00     0.000 A 
HETATM   44  C   MK1     0      14.178  39.156  23.761  0.00  0.00     0.000 A 
HETATM   45  C   MK1     0      14.323  39.724  25.184  0.00  0.00     0.000 A 
ENDBRANCH  39  40
ENDBRANCH  25  39
ENDBRANCH  24  25
ENDBRANCH   2  24
TORSDOF 10
ENDMDL
MODEL 3
REMARK VINA RESULT:    -6.019      4.651      8.646
REMARK INTER + INTRA:         -12.408
REMARK INTER:                  -7.267
REMARK INTRA:                  -5.142
REMARK UNBOUND:                -2.871
REMARK  10 active torsions:
REMARK  status: ('A' for Active; 'I' for Inactive)
REMARK    1  A    between atoms: N_5  and  C_13 
REMARK    2  A    between atoms: N_6  and  C_21 
REMARK    3  A    between atoms: N_7  and  C_18 
REMARK       I    between atoms: N_7  and  C_24 
REMARK    4  A    between atoms: C_13  and  C_15 
REMARK    5  A    between atoms: C_15  and  C_16 
REMARK    6  A    between atoms: C_16  and  C_17 
REMARK    7  A    between atoms: C_17  and  C_24 
REMARK    8  A    between atoms: C_17  and  C_25 
REMARK    9  A    between atoms: C_21  and  C_28 
REMARK   10  A    between atoms: C_25  and  C_30 
ROOT
HETATM    1  O   MK1     0      15.720  43.302  30.830  0.00  0.00    -0.221 OA
HETATM    2  C   MK1     0      15.877  42.168  29.800  0.00  0.00     0.178 C 
ENDROOT
BRANCH   2   3
HETATM    3  C   MK1     0      14.630  41.456  29.243  0.00  0.00     0.135 C 
BRANCH   3   4
HETATM    4  N   MK1     0      13.896  42.035  28.020  0.00  0.00    -0.339 N 
HETATM    5  C   MK1     0      13.849  41.239  26.702  0.00  0.00     0.123 A 
HETATM    6  C   MK1     0      13.114  41.818  25.478  0.00  0.00     0.108 A 
HETATM    7  C   MK1     0      14.537  39.865  26.607  0.00  0.00     0.227 A 
HETATM    8  N   MK1     0      12.426  43.193  25.573  0.00  0.00    -0.339 N 
HETATM    9  C   MK1     0      13.385  40.901  24.882  0.00  0.00    -0.089 A 
HETATM   10  C   MK1     0      12.473  43.988  26.891  0.00  0.00     0.126 A 
HETATM   11  C   MK1     0      13.207  43.409  28.114  0.00  0.00     0.126 A 
HETATM   12  C   MK1     0      13.755  39.648  24.067  0.00  0.00     0.134 A 
HETATM   13  N   MK1     0      14.490  39.069  25.290  0.00  0.00    -0.237 NA
HETATM   14  C   MK1     0      14.126  38.395  23.251  0.00  0.00     0.037 C 
HETATM   15  C   MK1     0      13.021  40.227  22.843  0.00  0.00     0.037 C 
HETATM   16  O   MK1     0      15.271  39.286  27.831  0.00  0.00    -0.168 OA
BRANCH   8  17
HETATM   17  C   MK1     0      11.692  43.772  24.349  0.00  0.00     0.104 C 
BRANCH  17  18
HETATM   18  C   MK1     0      12.393  44.805  23.448  0.00  0.00     0.046 A 
HETATM   19  C   MK1     0      13.676  44.420  22.689  0.00  0.00     0.006 A 
HETATM   20  C   MK1     0      14.378  45.452  21.788  0.00  0.00     0.026 A 
HETATM   21  C   MK1     0      13.796  46.872  21.646  0.00  0.00     0.120 A 
HETATM   22  N   MK1     0      12.512  47.257  22.405  0.00  0.00    -0.295 NA
HETATM   23  C   MK1     0      11.811  46.224  23.306  0.00  0.00     0.122 A 
ENDBRANCH  17  18
ENDBRANCH   8  17
ENDBRANCH   3   4
ENDBRANCH   2   3
BRANCH   2  24
HETATM   24  C   MK1     0      17.280  41.745  29.328  0.00  0.00     0.061 C 
BRANCH  24  25
HETATM   25  C   MK1     0      17.691  41.948  27.858  0.00  0.00     0.002 C 
BRANCH  25  26
HETATM   26  C   MK1     0      17.618  43.350  27.224  0.00  0.00     0.205 C 
HETATM   27  O   MK1     0      18.827  44.300  27.315  0.00  0.00    -0.170 OA
HETATM   28  N   MK1     0      16.336  43.802  26.500  0.00  0.00    -0.219 NA
BRANCH  28  29
HETATM   29  C   MK1     0      16.263  45.203  25.867  0.00  0.00     0.100 A 
HETATM   30  C   MK1     0      15.572  46.429  26.473  0.00  0.00     0.130 A 
HETATM   31  O   MK1     0      14.829  46.474  27.821  0.00  0.00    -0.193 OA
HETATM   32  C   MK1     0      15.748  47.601  25.504  0.00  0.00     0.077 A 
HETATM   33  C   MK1     0      16.549  47.105  24.297  0.00  0.00    -0.040 A 
HETATM   34  C   MK1     0      16.868  45.615  24.523  0.00  0.00    -0.010 A 
HETATM   35  C   MK1     0      17.032  47.811  23.016  0.00  0.00     0.022 A 
HETATM   36  C   MK1     0      17.671  44.832  23.468  0.00  0.00     0.027 A 
HETATM   37  C   MK1     0      18.155  45.538  22.187  0.00  0.00     0.005 A 
HETATM   38  C   MK1     0      17.836  47.027  21.961  0.00  0.00     0.005 A 
ENDBRANCH  28  29
ENDBRANCH  25  26
BRANCH  25  39
HETATM   39  C   MK1     0      18.176  40.750  27.020  0.00  0.00     0.026 C 
BRANCH  39  40
HETATM   40  C   MK1     0      18.522  40.941  25.532  0.00  0.00     0.004 A 
HETATM   41  C   MK1     0      17.432  40.766  24.459  0.00  0.00     0.000 A 
HETATM   42  C   MK1     0      17.778  40.957  22.971  0.00  0.00     0.000 A 
HETATM   43  C   MK1     0      19.215  41.322  22.555  0.00  0.00     0.000 A 
HETATM   44  C   MK1     0      20.306  41.497  23.628  0.00  0.00     0.000 A 
HETATM   45  C   MK1     0      19.959  41.306  25.116  0.00  0.00     0.000 A 
ENDBRANCH  39  40
ENDBRANCH  25  39
ENDBRANCH  24  25
ENDBRANCH   2  24
TORSDOF 10
ENDMDL
MODEL 4
REMARK VINA RESULT:    -5.975      2.946      7.959
REMARK INTER + INTRA:         -12.339
REMARK INTER:                  -9.237
REMARK INTRA:                  -3.102
REMARK UNBOUND:                -2.871
REMARK  10 active torsions:
REMARK  status: ('A' for Active; 'I' for Inactive)
REMARK    1  A    between atoms: N_5  and  C_13 
REMARK    2  A    between atoms: N_6  and  C_21 
REMARK    3  A    between atoms: N_7  and  C_18 
REMARK       I    between atoms: N_7  and  C_24 
REMARK    4  A    between atoms: C_13  and  C_15 
REMARK    5  A    between atoms: C_15  and  C_16 
REMARK    6  A    between atoms: C_16  and  C_17 
REMARK    7  A    between atoms: C_17  and  C_24 
REMARK    8  A    between atoms: C_17  and  C_25 
REMARK    9  A    between atoms: C_21  and  C_28 
REMARK   10  A    between atoms: C_25  and  C_30 
ROOT
HETATM    1  O   MK1     0      13.678  43.380  27.322  0.00  0.00    -0.221 OA
HETATM    2  C   MK1     0      13.187  42.117  26.590  0.00  0.00     0.178 C 
ENDROOT
BRANCH   2   3
HETATM    3  C   MK1     0      14.084  40.867  26.524  0.00  0.00     0.135 C 
BRANCH   3   4
HETATM    4  N   MK1     0      15.600  40.994  26.764  0.00  0.00    -0.339 N 
HETATM    5  C   MK1     0      16.583  40.823  25.591  0.00  0.00     0.123 A 
HETATM    6  C   MK1     0      18.099  40.950  25.831  0.00  0.00     0.108 A 
HETATM    7  C   MK1     0      16.049  40.525  24.177  0.00  0.00     0.227 A 
HETATM    8  N   MK1     0      18.632  41.249  27.245  0.00  0.00    -0.339 N 
HETATM    9  C   MK1     0      18.288  40.752  24.737  0.00  0.00    -0.089 A 
HETATM   10  C   MK1     0      17.649  41.420  28.418  0.00  0.00     0.126 A 
HETATM   11  C   MK1     0      16.133  41.292  28.178  0.00  0.00     0.126 A 
HETATM   12  C   MK1     0      18.548  40.481  23.244  0.00  0.00     0.134 A 
HETATM   13  N   MK1     0      17.032  40.353  23.003  0.00  0.00    -0.237 NA
HETATM   14  C   MK1     0      18.807  40.210  21.750  0.00  0.00     0.037 C 
HETATM   15  C   MK1     0      20.064  40.608  23.484  0.00  0.00     0.037 C 
HETATM   16  O   MK1     0      14.533  40.397  23.938  0.00  0.00    -0.168 OA
BRANCH   8  17
HETATM   17  C   MK1     0      20.148  41.376  27.484  0.00  0.00     0.104 C 
BRANCH  17  18
HETATM   18  C   MK1     0      21.021  42.162  26.489  0.00  0.00     0.046 A 
HETATM   19  C   MK1     0      20.533  43.513  25.935  0.00  0.00     0.006 A 
HETATM   20  C   MK1     0      21.405  44.299  24.940  0.00  0.00     0.026 A 
HETATM   21  C   MK1     0      22.768  43.733  24.496  0.00  0.00     0.120 A 
HETATM   22  N   MK1     0      23.257  42.381  25.050  0.00  0.00    -0.295 NA
HETATM   23  C   MK1     0      22.383  41.596  26.046  0.00  0.00     0.122 A 
ENDBRANCH  17  18
ENDBRANCH   8  17
ENDBRANCH   3   4
ENDBRANCH   2   3
BRANCH   2  24
HETATM   24  C   MK1     0      11.799  42.103  25.924  0.00  0.00     0.061 C 
BRANCH  24  25
HETATM   25  C   MK1     0      11.679  42.188  24.391  0.00  0.00     0.002 C 
BRANCH  25  26
HETATM   26  C   MK1     0      12.611  43.123  23.596  0.00  0.00     0.205 C 
HETATM   27  O   MK1     0      13.114  42.704  22.202  0.00  0.00    -0.170 OA
HETATM   28  N   MK1     0      13.040  44.475  24.196  0.00  0.00    -0.219 NA
BRANCH  28  29
HETATM   29  C   MK1     0      13.971  45.409  23.401  0.00  0.00     0.100 A 
HETATM   30  C   MK1     0      13.559  46.707  22.701  0.00  0.00     0.130 A 
HETATM   31  O   MK1     0      12.141  47.306  22.669  0.00  0.00    -0.193 OA
HETATM   32  C   MK1     0      14.803  47.305  22.039  0.00  0.00     0.077 A 
HETATM   33  C   MK1     0      15.987  46.380  22.327  0.00  0.00    -0.040 A 
HETATM   34  C   MK1     0      15.471  45.201  23.173  0.00  0.00    -0.010 A 
HETATM   35  C   MK1     0      17.474  46.450  21.931  0.00  0.00     0.022 A 
HETATM   36  C   MK1     0      16.441  44.093  23.624  0.00  0.00     0.027 A 
HETATM   37  C   MK1     0      17.928  44.163  23.229  0.00  0.00     0.005 A 
HETATM   38  C   MK1     0      18.445  45.342  22.382  0.00  0.00     0.005 A 
ENDBRANCH  28  29
ENDBRANCH  25  26
BRANCH  25  39
HETATM   39  C   MK1     0      10.628  41.340  23.651  0.00  0.00     0.026 C 
BRANCH  39  40
HETATM   40  C   MK1     0       9.196  41.875  23.468  0.00  0.00     0.004 A 
HETATM   41  C   MK1     0       8.937  43.393  23.454  0.00  0.00     0.000 A 
HETATM   42  C   MK1     0       7.505  43.928  23.272  0.00  0.00     0.000 A 
HETATM   43  C   MK1     0       6.331  42.946  23.103  0.00  0.00     0.000 A 
HETATM   44  C   MK1     0       6.590  41.427  23.118  0.00  0.00     0.000 A 
HETATM   45  C   MK1     0       8.022  40.892  23.300  0.00  0.00     0.000 A 
ENDBRANCH  39  40
ENDBRANCH  25  39
ENDBRANCH  24  25
ENDBRANCH   2  24
TORSDOF 10
ENDMDL
MODEL 5
REMARK VINA RESULT:    -5.968      2.263     10.222
REMARK INTER + INTRA:         -12.328
REMARK INTER:                 -10.310
REMARK INTRA:                  -2.018
REMARK UNBOUND:                -2.871
REMARK  10 active torsions:
REMARK  status: ('A' for Active; 'I' for Inactive)
REMARK    1  A    between atoms: N_5  and  C_13 
REMARK    2  A    between atoms: N_6  and  C_21 
REMARK    3  A    between atoms: N_7  and  C_18 
REMARK       I    between atoms: N_7  and  C_24 
REMARK    4  A    between atoms: C_13  and  C_15 
REMARK    5  A    between atoms: C_15  and  C_16 
REMARK    6  A    between atoms: C_16  and  C_17 
REMARK    7  A    between atoms: C_17  and  C_24 
REMARK    8  A    between atoms: C_17  and  C_25 
REMARK    9  A    between atoms: C_21  and  C_28 
REMARK   10  A    between atoms: C_25  and  C_30 
ROOT
HETATM    1  O   MK1     0      11.071  42.338  26.767  0.00  0.00    -0.221 OA
HETATM    2  C   MK1     0      10.300  43.364  25.916  0.00  0.00     0.178 C 
ENDROOT
BRANCH   2   3
HETATM    3  C   MK1     0       8.764  43.445  26.011  0.00  0.00     0.135 C 
BRANCH   3   4
HETATM    4  N   MK1     0       7.890  42.492  25.175  0.00  0.00    -0.339 N 
HETATM    5  C   MK1     0       6.371  42.429  25.418  0.00  0.00     0.123 A 
HETATM    6  C   MK1     0       5.496  41.476  24.582  0.00  0.00     0.108 A 
HETATM    7  C   MK1     0       5.726  43.318  26.497  0.00  0.00     0.227 A 
HETATM    8  N   MK1     0       6.142  40.586  23.503  0.00  0.00    -0.339 N 
HETATM    9  C   MK1     0       4.581  41.825  25.141  0.00  0.00    -0.089 A 
HETATM   10  C   MK1     0       7.661  40.650  23.261  0.00  0.00     0.126 A 
HETATM   11  C   MK1     0       8.535  41.602  24.096  0.00  0.00     0.126 A 
HETATM   12  C   MK1     0       3.332  42.302  25.904  0.00  0.00     0.134 A 
HETATM   13  N   MK1     0       4.206  43.255  26.740  0.00  0.00    -0.237 NA
HETATM   14  C   MK1     0       2.082  42.779  26.667  0.00  0.00     0.037 C 
HETATM   15  C   MK1     0       2.457  41.349  25.068  0.00  0.00     0.037 C 
HETATM   16  O   MK1     0       6.601  44.271  27.333  0.00  0.00    -0.168 OA
BRANCH   8  17
HETATM   17  C   MK1     0       5.267  39.633  22.667  0.00  0.00     0.104 C 
BRANCH  17  18
HETATM   18  C   MK1     0       4.104  40.193  21.827  0.00  0.00     0.046 A 
HETATM   19  C   MK1     0       4.277  41.516  21.058  0.00  0.00     0.006 A 
HETATM   20  C   MK1     0       3.115  42.077  20.218  0.00  0.00     0.026 A 
HETATM   21  C   MK1     0       1.778  41.314  20.147  0.00  0.00     0.120 A 
HETATM   22  N   MK1     0       1.605  39.991  20.916  0.00  0.00    -0.295 NA
HETATM   23  C   MK1     0       2.768  39.431  21.756  0.00  0.00     0.122 A 
ENDBRANCH  17  18
ENDBRANCH   8  17
ENDBRANCH   3   4
ENDBRANCH   2   3
BRANCH   2  24
HETATM   24  C   MK1     0      11.063  44.308  24.970  0.00  0.00     0.061 C 
BRANCH  24  25
HETATM   25  C   MK1     0      12.182  43.756  24.068  0.00  0.00     0.002 C 
BRANCH  25  26
HETATM   26  C   MK1     0      13.498  44.541  23.905  0.00  0.00     0.205 C 
HETATM   27  O   MK1     0      13.898  45.597  24.952  0.00  0.00    -0.170 OA
HETATM   28  N   MK1     0      14.412  44.269  22.696  0.00  0.00    -0.219 NA
BRANCH  28  29
HETATM   29  C   MK1     0      15.727  45.054  22.533  0.00  0.00     0.100 A 
HETATM   30  C   MK1     0      15.851  46.530  22.144  0.00  0.00     0.130 A 
HETATM   31  O   MK1     0      14.682  47.487  21.847  0.00  0.00    -0.193 OA
HETATM   32  C   MK1     0      17.339  46.886  22.102  0.00  0.00     0.077 A 
HETATM   33  C   MK1     0      18.139  45.633  22.465  0.00  0.00    -0.040 A 
HETATM   34  C   MK1     0      17.138  44.495  22.733  0.00  0.00    -0.010 A 
HETATM   35  C   MK1     0      19.653  45.373  22.589  0.00  0.00     0.022 A 
HETATM   36  C   MK1     0      17.649  43.096  23.125  0.00  0.00     0.027 A 
HETATM   37  C   MK1     0      19.162  42.835  23.248  0.00  0.00     0.005 A 
HETATM   38  C   MK1     0      20.164  43.974  22.980  0.00  0.00     0.005 A 
ENDBRANCH  28  29
ENDBRANCH  25  26
BRANCH  25  39
HETATM   39  C   MK1     0      11.987  42.419  23.328  0.00  0.00     0.026 C 
BRANCH  39  40
HETATM   40  C   MK1     0      12.756  41.166  23.788  0.00  0.00     0.004 A 
HETATM   41  C   MK1     0      13.757  41.260  24.954  0.00  0.00     0.000 A 
HETATM   42  C   MK1     0      14.525  40.007  25.414  0.00  0.00     0.000 A 
HETATM   43  C   MK1     0      14.292  38.659  24.707  0.00  0.00     0.000 A 
HETATM   44  C   MK1     0      13.291  38.564  23.540  0.00  0.00     0.000 A 
HETATM   45  C   MK1     0      12.523  39.817  23.081  0.00  0.00     0.000 A 
ENDBRANCH  39  40
ENDBRANCH  25  39
ENDBRANCH  24  25
ENDBRANCH   2  24
TORSDOF 10
ENDMDL
MODEL 6
REMARK VINA RESULT:    -5.948      1.995      3.816
REMARK INTER + INTRA:         -12.296
REMARK INTER:                  -9.386
REMARK INTRA:                  -2.910
REMARK UNBOUND:                -2.871
REMARK  10 active torsions:
REMARK  status: ('A' for Active; 'I' for Inactive)
REMARK    1  A    between atoms: N_5  and  C_13 
REMARK    2  A    between atoms: N_6  and  C_21 
REMARK    3  A    between atoms: N_7  and  C_18 
REMARK       I    between atoms: N_7  and  C_24 
REMARK    4  A    between atoms: C_13  and  C_15 
REMARK    5  A    between atoms: C_15  and  C_16 
REMARK    6  A    between atoms: C_16  and  C_17 
REMARK    7  A    between atoms: C_17  and  C_24 
REMARK    8  A    between atoms: C_17  and  C_25 
REMARK    9  A    between atoms: C_21  and  C_28 
REMARK   10  A    between atoms: C_25  and  C_30 
ROOT
HETATM    1  O   MK1     0      10.342  45.709  24.278  0.00  0.00    -0.221 OA
HETATM    2  C   MK1     0      11.320  44.550  24.547  0.00  0.00     0.178 C 
ENDROOT
BRANCH   2   3
HETATM    3  C   MK1     0      12.107  44.497  25.870  0.00  0.00     0.135 C 
BRANCH   3   4
HETATM    4  N   MK1     0      13.630  44.279  25.850  0.00  0.00    -0.339 N 
HETATM    5  C   MK1     0      14.222  42.932  26.307  0.00  0.00     0.123 A 
HETATM    6  C   MK1     0      15.746  42.713  26.287  0.00  0.00     0.108 A 
HETATM    7  C   MK1     0      13.289  41.803  26.783  0.00  0.00     0.227 A 
HETATM    8  N   MK1     0      16.680  43.842  25.811  0.00  0.00    -0.339 N 
HETATM    9  C   MK1     0      15.601  41.667  26.682  0.00  0.00    -0.089 A 
HETATM   10  C   MK1     0      16.088  45.189  25.354  0.00  0.00     0.126 A 
HETATM   11  C   MK1     0      14.564  45.407  25.374  0.00  0.00     0.126 A 
HETATM   12  C   MK1     0      15.404  40.239  27.221  0.00  0.00     0.134 A 
HETATM   13  N   MK1     0      13.879  40.456  27.240  0.00  0.00    -0.237 NA
HETATM   14  C   MK1     0      15.206  38.809  27.760  0.00  0.00     0.037 C 
HETATM   15  C   MK1     0      16.928  40.020  27.201  0.00  0.00     0.037 C 
HETATM   16  O   MK1     0      11.764  42.022  26.803  0.00  0.00    -0.168 OA
BRANCH   8  17
HETATM   17  C   MK1     0      18.204  43.624  25.791  0.00  0.00     0.104 C 
BRANCH  17  18
HETATM   18  C   MK1     0      18.866  42.923  24.590  0.00  0.00     0.046 A 
HETATM   19  C   MK1     0      18.796  41.390  24.459  0.00  0.00     0.006 A 
HETATM   20  C   MK1     0      19.457  40.688  23.259  0.00  0.00     0.026 A 
HETATM   21  C   MK1     0      20.190  41.520  22.189  0.00  0.00     0.120 A 
HETATM   22  N   MK1     0      20.260  43.053  22.320  0.00  0.00    -0.295 NA
HETATM   23  C   MK1     0      19.598  43.754  23.521  0.00  0.00     0.122 A 
ENDBRANCH  17  18
ENDBRANCH   8  17
ENDBRANCH   3   4
ENDBRANCH   2   3
BRANCH   2  24
HETATM   24  C   MK1     0      11.511  43.444  23.493  0.00  0.00     0.061 C 
BRANCH  24  25
HETATM   25  C   MK1     0      10.583  42.214  23.490  0.00  0.00     0.002 C 
BRANCH  25  26
HETATM   26  C   MK1     0       9.070  42.391  23.714  0.00  0.00     0.205 C 
HETATM   27  O   MK1     0       8.302  43.485  22.949  0.00  0.00    -0.170 OA
HETATM   28  N   MK1     0       8.324  41.474  24.702  0.00  0.00    -0.219 NA
BRANCH  28  29
HETATM   29  C   MK1     0       6.812  41.651  24.925  0.00  0.00     0.100 A 
HETATM   30  C   MK1     0       6.157  42.543  25.984  0.00  0.00     0.130 A 
HETATM   31  O   MK1     0       6.898  43.419  27.012  0.00  0.00    -0.193 OA
HETATM   32  C   MK1     0       4.639  42.412  25.844  0.00  0.00     0.077 A 
HETATM   33  C   MK1     0       4.349  41.440  24.698  0.00  0.00    -0.040 A 
HETATM   34  C   MK1     0       5.699  40.967  24.127  0.00  0.00    -0.010 A 
HETATM   35  C   MK1     0       3.032  40.917  24.093  0.00  0.00     0.022 A 
HETATM   36  C   MK1     0       5.732  39.972  22.952  0.00  0.00     0.027 A 
HETATM   37  C   MK1     0       4.415  39.450  22.347  0.00  0.00     0.005 A 
HETATM   38  C   MK1     0       3.065  39.922  22.918  0.00  0.00     0.005 A 
ENDBRANCH  28  29
ENDBRANCH  25  26
BRANCH  25  39
HETATM   39  C   MK1     0      11.168  40.808  23.262  0.00  0.00     0.026 C 
BRANCH  39  40
HETATM   40  C   MK1     0      12.693  40.595  23.284  0.00  0.00     0.004 A 
HETATM   41  C   MK1     0      13.276  39.239  23.722  0.00  0.00     0.000 A 
HETATM   42  C   MK1     0      14.801  39.027  23.744  0.00  0.00     0.000 A 
HETATM   43  C   MK1     0      15.744  40.171  23.328  0.00  0.00     0.000 A 
HETATM   44  C   MK1     0      15.161  41.528  22.890  0.00  0.00     0.000 A 
HETATM   45  C   MK1     0      13.636  41.740  22.868  0.00  0.00     0.000 A 
ENDBRANCH  39  40
ENDBRANCH  25  39
ENDBRANCH  24  25
ENDBRANCH   2  24
TORSDOF 10
ENDMDL
MODEL 7
REMARK VINA RESULT:    -5.930      2.915      7.822
REMARK INTER + INTRA:         -12.267
REMARK INTER:                  -8.968
REMARK INTRA:                  -3.299
REMARK UNBOUND:                -2.871
REMARK  10 active torsions:
REMARK  status: ('A' for Active; 'I' for Inactive)
REMARK    1  A    between atoms: N_5  and  C_13 
REMARK    2  A    between atoms: N_6  and  C_21 
REMARK    3  A    between atoms: N_7  and  C_18 
REMARK       I    between atoms: N_7  and  C_24 
REMARK    4  A    between atoms: C_13  and  C_15 
REMARK    5  A    between atoms: C_15  and  C_16 
REMARK    6  A    between atoms: C_16  and  C_17 
REMARK    7  A    between atoms: C_17  and  C_24 
REMARK    8  A    between atoms: C_17  and  C_25 
REMARK    9  A    between atoms: C_21  and  C_28 
REMARK   10  A    between atoms: C_25  and  C_30 
ROOT
HETATM    1  O   MK1     0      13.992  40.813  28.305  0.00  0.00    -0.221 OA
HETATM    2  C   MK1     0      13.709  41.254  26.857  0.00  0.00     0.178 C 
ENDROOT
BRANCH   2   3
HETATM    3  C   MK1     0      14.792  41.087  25.775  0.00  0.00     0.135 C 
BRANCH   3   4
HETATM    4  N   MK1     0      16.105  41.886  25.871  0.00  0.00    -0.339 N 
HETATM    5  C   MK1     0      17.206  41.689  24.812  0.00  0.00     0.123 A 
HETATM    6  C   MK1     0      18.519  42.487  24.908  0.00  0.00     0.108 A 
HETATM    7  C   MK1     0      16.993  40.693  23.657  0.00  0.00     0.227 A 
HETATM    8  N   MK1     0      18.732  43.483  26.064  0.00  0.00    -0.339 N 
HETATM    9  C   MK1     0      18.895  41.983  23.972  0.00  0.00    -0.089 A 
HETATM   10  C   MK1     0      17.631  43.680  27.122  0.00  0.00     0.126 A 
HETATM   11  C   MK1     0      16.318  42.882  27.026  0.00  0.00     0.126 A 
HETATM   12  C   MK1     0      19.407  41.294  22.694  0.00  0.00     0.134 A 
HETATM   13  N   MK1     0      18.094  40.495  22.597  0.00  0.00    -0.237 NA
HETATM   14  C   MK1     0      19.920  40.605  21.415  0.00  0.00     0.037 C 
HETATM   15  C   MK1     0      20.721  42.092  22.790  0.00  0.00     0.037 C 
HETATM   16  O   MK1     0      15.680  39.894  23.561  0.00  0.00    -0.168 OA
BRANCH   8  17
HETATM   17  C   MK1     0      20.045  44.282  26.159  0.00  0.00     0.104 C 
BRANCH  17  18
HETATM   18  C   MK1     0      20.235  45.557  25.317  0.00  0.00     0.046 A 
HETATM   19  C   MK1     0      21.196  45.549  24.113  0.00  0.00     0.006 A 
HETATM   20  C   MK1     0      21.386  46.823  23.270  0.00  0.00     0.026 A 
HETATM   21  C   MK1     0      20.614  48.107  23.630  0.00  0.00     0.120 A 
HETATM   22  N   MK1     0      19.652  48.115  24.834  0.00  0.00    -0.295 NA
HETATM   23  C   MK1     0      19.463  46.839  25.677  0.00  0.00     0.122 A 
ENDBRANCH  17  18
ENDBRANCH   8  17
ENDBRANCH   3   4
ENDBRANCH   2   3
BRANCH   2  24
HETATM   24  C   MK1     0      12.343  41.862  26.490  0.00  0.00     0.061 C 
BRANCH  24  25
HETATM   25  C   MK1     0      12.057  42.296  25.040  0.00  0.00     0.002 C 
BRANCH  25  26
HETATM   26  C   MK1     0      12.709  43.571  24.475  0.00  0.00     0.205 C 
HETATM   27  O   MK1     0      13.335  44.604  25.431  0.00  0.00    -0.170 OA
HETATM   28  N   MK1     0      12.736  43.814  22.954  0.00  0.00    -0.219 NA
BRANCH  28  29
HETATM   29  C   MK1     0      13.389  45.089  22.390  0.00  0.00     0.100 A 
HETATM   30  C   MK1     0      12.651  46.272  21.755  0.00  0.00     0.130 A 
HETATM   31  O   MK1     0      11.127  46.392  21.569  0.00  0.00    -0.193 OA
HETATM   32  C   MK1     0      13.693  47.312  21.336  0.00  0.00     0.077 A 
HETATM   33  C   MK1     0      15.077  46.778  21.711  0.00  0.00    -0.040 A 
HETATM   34  C   MK1     0      14.888  45.397  22.366  0.00  0.00    -0.010 A 
HETATM   35  C   MK1     0      16.492  47.364  21.544  0.00  0.00     0.022 A 
HETATM   36  C   MK1     0      16.114  44.602  22.854  0.00  0.00     0.027 A 
HETATM   37  C   MK1     0      17.529  45.188  22.687  0.00  0.00     0.005 A 
HETATM   38  C   MK1     0      17.718  46.569  22.032  0.00  0.00     0.005 A 
ENDBRANCH  28  29
ENDBRANCH  25  26
BRANCH  25  39
HETATM   39  C   MK1     0      11.118  41.455  24.155  0.00  0.00     0.026 C 
BRANCH  39  40
HETATM   40  C   MK1     0       9.593  41.547  24.346  0.00  0.00     0.004 A 
HETATM   41  C   MK1     0       9.012  42.292  25.561  0.00  0.00     0.000 A 
HETATM   42  C   MK1     0       7.486  42.384  25.752  0.00  0.00     0.000 A 
HETATM   43  C   MK1     0       6.541  41.730  24.726  0.00  0.00     0.000 A 
HETATM   44  C   MK1     0       7.123  40.985  23.509  0.00  0.00     0.000 A 
HETATM   45  C   MK1     0       8.648  40.894  23.320  0.00  0.00     0.000 A 
ENDBRANCH  39  40
ENDBRANCH  25  39
ENDBRANCH  24  25
ENDBRANCH   2  24
TORSDOF 10
ENDMDL
MODEL 8
REMARK VINA RESULT:    -5.839      3.348      9.350
REMARK INTER + INTRA:         -12.124
REMARK INTER:                  -8.569
REMARK INTRA:                  -3.554
REMARK UNBOUND:                -2.871
REMARK  10 active torsions:
REMARK  status: ('A' for Active; 'I' for Inactive)
REMARK    1  A    between atoms: N_5  and  C_13 
REMARK    2  A    between atoms: N_6  and  C_21 
REMARK    3  A    between atoms: N_7  and  C_18 
REMARK       I    between atoms: N_7  and  C_24 
REMARK    4  A    between atoms: C_13  and  C_15 
REMARK    5  A    between atoms: C_15  and  C_16 
REMARK    6  A    between atoms: C_16  and  C_17 
REMARK    7  A    between atoms: C_17  and  C_24 
REMARK    8  A    between atoms: C_17  and  C_25 
REMARK    9  A    between atoms: C_21  and  C_28 
REMARK   10  A    between atoms: C_25  and  C_30 
ROOT
HETATM    1  O   MK1     0      17.187  45.117  28.409  0.00  0.00    -0.221 OA
HETATM    2  C   MK1     0      16.079  44.551  27.502  0.00  0.00     0.178 C 
ENDROOT
BRANCH   2   3
HETATM    3  C   MK1     0      15.429  45.446  26.430  0.00  0.00     0.135 C 
BRANCH   3   4
HETATM    4  N   MK1     0      13.925  45.316  26.127  0.00  0.00    -0.339 N 
HETATM    5  C   MK1     0      13.439  45.213  24.670  0.00  0.00     0.123 A 
HETATM    6  C   MK1     0      11.934  45.082  24.366  0.00  0.00     0.108 A 
HETATM    7  C   MK1     0      14.457  45.240  23.514  0.00  0.00     0.227 A 
HETATM    8  N   MK1     0      10.916  45.055  25.522  0.00  0.00    -0.339 N 
HETATM    9  C   MK1     0      12.160  45.050  23.262  0.00  0.00    -0.089 A 
HETATM   10  C   MK1     0      11.402  45.158  26.979  0.00  0.00     0.126 A 
HETATM   11  C   MK1     0      12.906  45.288  27.282  0.00  0.00     0.126 A 
HETATM   12  C   MK1     0      12.467  45.006  21.754  0.00  0.00     0.134 A 
HETATM   13  N   MK1     0      13.971  45.137  22.056  0.00  0.00    -0.237 NA
HETATM   14  C   MK1     0      12.774  44.962  20.245  0.00  0.00     0.037 C 
HETATM   15  C   MK1     0      10.962  44.876  21.451  0.00  0.00     0.037 C 
HETATM   16  O   MK1     0      15.961  45.371  23.818  0.00  0.00    -0.168 OA
BRANCH   8  17
HETATM   17  C   MK1     0       9.412  44.924  25.219  0.00  0.00     0.104 C 
BRANCH  17  18
HETATM   18  C   MK1     0       8.876  43.667  24.508  0.00  0.00     0.046 A 
HETATM   19  C   MK1     0       9.563  42.306  24.728  0.00  0.00     0.006 A 
HETATM   20  C   MK1     0       9.028  41.049  24.018  0.00  0.00     0.026 A 
HETATM   21  C   MK1     0       7.805  41.153  23.087  0.00  0.00     0.120 A 
HETATM   22  N   MK1     0       7.118  42.513  22.867  0.00  0.00    -0.295 NA
HETATM   23  C   MK1     0       7.654  43.770  23.577  0.00  0.00     0.122 A 
ENDBRANCH  17  18
ENDBRANCH   8  17
ENDBRANCH   3   4
ENDBRANCH   2   3
BRANCH   2  24
HETATM   24  C   MK1     0      15.620  43.091  27.665  0.00  0.00     0.061 C 
BRANCH  24  25
HETATM   25  C   MK1     0      16.149  42.006  26.709  0.00  0.00     0.002 C 
BRANCH  25  26
HETATM   26  C   MK1     0      17.440  42.249  25.906  0.00  0.00     0.205 C 
HETATM   27  O   MK1     0      18.765  42.522  26.644  0.00  0.00    -0.170 OA
HETATM   28  N   MK1     0      17.408  42.220  24.367  0.00  0.00    -0.219 NA
BRANCH  28  29
HETATM   29  C   MK1     0      18.699  42.464  23.565  0.00  0.00     0.100 A 
HETATM   30  C   MK1     0      19.431  41.430  22.703  0.00  0.00     0.130 A 
HETATM   31  O   MK1     0      19.004  39.967  22.488  0.00  0.00    -0.193 OA
HETATM   32  C   MK1     0      20.662  42.107  22.093  0.00  0.00     0.077 A 
HETATM   33  C   MK1     0      20.695  43.559  22.575  0.00  0.00    -0.040 A 
HETATM   34  C   MK1     0      19.476  43.781  23.489  0.00  0.00    -0.010 A 
HETATM   35  C   MK1     0      21.675  44.716  22.304  0.00  0.00     0.022 A 
HETATM   36  C   MK1     0      19.236  45.160  24.132  0.00  0.00     0.027 A 
HETATM   37  C   MK1     0      20.216  46.317  23.862  0.00  0.00     0.005 A 
HETATM   38  C   MK1     0      21.436  46.095  22.947  0.00  0.00     0.005 A 
ENDBRANCH  28  29
ENDBRANCH  25  26
BRANCH  25  39
HETATM   39  C   MK1     0      15.386  40.676  26.555  0.00  0.00     0.026 C 
BRANCH  39  40
HETATM   40  C   MK1     0      14.488  40.442  25.326  0.00  0.00     0.004 A 
HETATM   41  C   MK1     0      13.803  41.634  24.634  0.00  0.00     0.000 A 
HETATM   42  C   MK1     0      12.904  41.400  23.406  0.00  0.00     0.000 A 
HETATM   43  C   MK1     0      12.691  39.973  22.869  0.00  0.00     0.000 A 
HETATM   44  C   MK1     0      13.377  38.779  23.561  0.00  0.00     0.000 A 
HETATM   45  C   MK1     0      14.275  39.014  24.789  0.00  0.00     0.000 A 
ENDBRANCH  39  40
ENDBRANCH  25  39
ENDBRANCH  24  25
ENDBRANCH   2  24
TORSDOF 10
ENDMDL
MODEL 9
REMARK VINA RESULT:    -5.768      2.189      6.659
REMARK INTER + INTRA:         -12.010
REMARK INTER:                  -8.175
REMARK INTRA:                  -3.835
REMARK UNBOUND:                -2.871
REMARK  10 active torsions:
REMARK  status: ('A' for Active; 'I' for Inactive)
REMARK    1  A    between atoms: N_5  and  C_13 
REMARK    2  A    between atoms: N_6  and  C_21 
REMARK    3  A    between atoms: N_7  and  C_18 
REMARK       I    between atoms: N_7  and  C_24 
REMARK    4  A    between atoms: C_13  and  C_15 
REMARK    5  A    between atoms: C_15  and  C_16 
REMARK    6  A    between atoms: C_16  and  C_17 
REMARK    7  A    between atoms: C_17  and  C_24 
REMARK    8  A    between atoms: C_17  and  C_25 
REMARK    9  A    between atoms: C_21  and  C_28 
REMARK   10  A    between atoms: C_25  and  C_30 
ROOT
HETATM    1  O   MK1     0       9.817  46.358  24.281  0.00  0.00    -0.221 OA
HETATM    2  C   MK1     0       9.492  44.854  24.233  0.00  0.00     0.178 C 
ENDROOT
BRANCH   2   3
HETATM    3  C   MK1     0      10.210  43.943  23.220  0.00  0.00     0.135 C 
BRANCH   3   4
HETATM    4  N   MK1     0      11.747  43.953  23.131  0.00  0.00    -0.339 N 
HETATM    5  C   MK1     0      12.528  42.626  23.150  0.00  0.00     0.123 A 
HETATM    6  C   MK1     0      14.065  42.635  23.061  0.00  0.00     0.108 A 
HETATM    7  C   MK1     0      11.772  41.288  23.259  0.00  0.00     0.227 A 
HETATM    8  N   MK1     0      14.822  43.972  22.952  0.00  0.00    -0.339 N 
HETATM    9  C   MK1     0      14.076  41.509  23.115  0.00  0.00    -0.089 A 
HETATM   10  C   MK1     0      14.040  45.299  22.933  0.00  0.00     0.126 A 
HETATM   11  C   MK1     0      12.504  45.289  23.022  0.00  0.00     0.126 A 
HETATM   12  C   MK1     0      14.090  39.971  23.189  0.00  0.00     0.134 A 
HETATM   13  N   MK1     0      12.552  39.961  23.278  0.00  0.00    -0.237 NA
HETATM   14  C   MK1     0      14.104  38.432  23.263  0.00  0.00     0.037 C 
HETATM   15  C   MK1     0      15.627  39.980  23.100  0.00  0.00     0.037 C 
HETATM   16  O   MK1     0      10.234  41.279  23.348  0.00  0.00    -0.168 OA
BRANCH   8  17
HETATM   17  C   MK1     0      16.359  43.982  22.863  0.00  0.00     0.104 C 
BRANCH  17  18
HETATM   18  C   MK1     0      17.193  43.142  23.849  0.00  0.00     0.046 A 
HETATM   19  C   MK1     0      16.827  43.122  25.345  0.00  0.00     0.006 A 
HETATM   20  C   MK1     0      17.659  42.283  26.331  0.00  0.00     0.026 A 
HETATM   21  C   MK1     0      18.859  41.462  25.821  0.00  0.00     0.120 A 
HETATM   22  N   MK1     0      19.226  41.482  24.325  0.00  0.00    -0.295 NA
HETATM   23  C   MK1     0      18.392  42.322  23.339  0.00  0.00     0.122 A 
ENDBRANCH  17  18
ENDBRANCH   8  17
ENDBRANCH   3   4
ENDBRANCH   2   3
BRANCH   2  24
HETATM   24  C   MK1     0       8.449  44.260  25.198  0.00  0.00     0.061 C 
BRANCH  24  25
HETATM   25  C   MK1     0       8.706  42.896  25.865  0.00  0.00     0.002 C 
BRANCH  25  26
HETATM   26  C   MK1     0       9.821  42.752  26.918  0.00  0.00     0.205 C 
HETATM   27  O   MK1     0       9.462  42.416  28.378  0.00  0.00    -0.170 OA
HETATM   28  N   MK1     0      11.294  42.944  26.511  0.00  0.00    -0.219 NA
BRANCH  28  29
HETATM   29  C   MK1     0      12.408  42.799  27.564  0.00  0.00     0.100 A 
HETATM   30  C   MK1     0      12.633  43.720  28.767  0.00  0.00     0.130 A 
HETATM   31  O   MK1     0      11.784  44.951  29.135  0.00  0.00    -0.193 OA
HETATM   32  C   MK1     0      13.849  43.203  29.540  0.00  0.00     0.077 A 
HETATM   33  C   MK1     0      14.379  41.961  28.818  0.00  0.00    -0.040 A 
HETATM   34  C   MK1     0      13.484  41.711  27.591  0.00  0.00    -0.010 A 
HETATM   35  C   MK1     0      15.562  41.020  29.114  0.00  0.00     0.022 A 
HETATM   36  C   MK1     0      13.772  40.519  26.658  0.00  0.00     0.027 A 
HETATM   37  C   MK1     0      14.955  39.578  26.954  0.00  0.00     0.005 A 
HETATM   38  C   MK1     0      15.850  39.828  28.181  0.00  0.00     0.005 A 
ENDBRANCH  28  29
ENDBRANCH  25  26
BRANCH  25  39
HETATM   39  C   MK1     0       7.848  41.676  25.481  0.00  0.00     0.026 C 
BRANCH  39  40
HETATM   40  C   MK1     0       6.623  41.854  24.565  0.00  0.00     0.004 A 
HETATM   41  C   MK1     0       6.788  41.778  23.036  0.00  0.00     0.000 A 
HETATM   42  C   MK1     0       5.563  41.955  22.119  0.00  0.00     0.000 A 
HETATM   43  C   MK1     0       4.173  42.209  22.732  0.00  0.00     0.000 A 
HETATM   44  C   MK1     0       4.008  42.285  24.263  0.00  0.00     0.000 A 
HETATM   45  C   MK1     0       5.233  42.107  25.178  0.00  0.00     0.000 A 
ENDBRANCH  39  40
ENDBRANCH  25  39
ENDBRANCH  24  25
ENDBRANCH   2  24
TORSDOF 10
ENDMDL
