MODEL 1
REMARK VINA RESULT:    -6.463      0.000      0.000
REMARK INTER + INTRA:         -13.155
REMARK INTER:                 -10.242
REMARK INTRA:                  -2.913
REMARK UNBOUND:                -2.913
REMARK  10 active torsions:
REMARK  status: ('A' for Active; 'I' for Inactive)
REMARK    1  A    between atoms: N_5  and  C_13 
REMARK    2  A    between atoms: N_6  and  C_21 
REMARK    3  A    between atoms: N_7  and  C_18 
REMARK       I    between atoms: N_7  and  C_24 
REMARK    4  A    between atoms: C_13  and  C_15 
REMARK    5  A    between atoms: C_15  and  C_16 
REMARK    6  A    between atoms: C_16  and  C_17 
REMARK    7  A    between atoms: C_17  and  C_24 
REMARK    8  A    between atoms: C_17  and  C_25 
REMARK    9  A    between atoms: C_21  and  C_28 
REMARK   10  A    between atoms: C_25  and  C_30 
ROOT
HETATM    1  O   MK1     0      19.112  10.391 -23.772  0.00  0.00    -0.221 OA
HETATM    2  C   MK1     0      19.182  11.801 -23.157  0.00  0.00     0.178 C 
ENDROOT
BRANCH   2   3
HETATM    3  C   MK1     0      20.490  12.295 -22.510  0.00  0.00     0.135 C 
BRANCH   3   4
HETATM    4  N   MK1     0      20.734  12.076 -21.006  0.00  0.00    -0.339 N 
HETATM    5  C   MK1     0      21.754  12.953 -20.256  0.00  0.00     0.123 A 
HETATM    6  C   MK1     0      21.999  12.735 -18.751  0.00  0.00     0.108 A 
HETATM    7  C   MK1     0      22.531  14.048 -21.010  0.00  0.00     0.227 A 
HETATM    8  N   MK1     0      21.223  11.639 -17.996  0.00  0.00    -0.339 N 
HETATM    9  C   MK1     0      22.758  13.568 -18.753  0.00  0.00    -0.089 A 
HETATM   10  C   MK1     0      20.202  10.763 -18.746  0.00  0.00     0.126 A 
HETATM   11  C   MK1     0      19.958  10.981 -20.250  0.00  0.00     0.126 A 
HETATM   12  C   MK1     0      23.795  14.706 -18.756  0.00  0.00     0.134 A 
HETATM   13  N   MK1     0      23.551  14.926 -20.261  0.00  0.00    -0.237 NA
HETATM   14  C   MK1     0      24.832  15.846 -18.759  0.00  0.00     0.037 C 
HETATM   15  C   MK1     0      24.039  14.488 -17.251  0.00  0.00     0.037 C 
HETATM   16  O   MK1     0      22.286  14.266 -22.515  0.00  0.00    -0.168 OA
BRANCH   8  17
HETATM   17  C   MK1     0      21.467  11.421 -16.491  0.00  0.00     0.104 C 
BRANCH  17  18
HETATM   18  C   MK1     0      21.867  10.029 -15.970  0.00  0.00     0.046 A 
HETATM   19  C   MK1     0      20.985   9.312 -14.931  0.00  0.00     0.006 A 
HETATM   20  C   MK1     0      21.384   7.920 -14.409  0.00  0.00     0.026 A 
HETATM   21  C   MK1     0      22.667   7.243 -14.927  0.00  0.00     0.120 A 
HETATM   22  N   MK1     0      23.550   7.959 -15.966  0.00  0.00    -0.295 NA
HETATM   23  C   MK1     0      23.150   9.352 -16.487  0.00  0.00     0.122 A 
ENDBRANCH  17  18
ENDBRANCH   8  17
ENDBRANCH   3   4
ENDBRANCH   2   3
BRANCH   2  24
HETATM   24  C   MK1     0      17.946  12.718 -23.188  0.00  0.00     0.061 C 
BRANCH  24  25
HETATM   25  C   MK1     0      17.617  13.610 -21.977  0.00  0.00     0.002 C 
BRANCH  25  26
HETATM   26  C   MK1     0      17.907  15.122 -22.032  0.00  0.00     0.205 C 
HETATM   27  O   MK1     0      19.281  15.625 -22.512  0.00  0.00    -0.170 OA
HETATM   28  N   MK1     0      16.822  16.130 -21.608  0.00  0.00    -0.219 NA
BRANCH  28  29
HETATM   29  C   MK1     0      17.112  17.641 -21.664  0.00  0.00     0.100 A 
HETATM   30  C   MK1     0      16.965  18.540 -22.895  0.00  0.00     0.130 A 
HETATM   31  O   MK1     0      16.502  18.090 -24.293  0.00  0.00    -0.193 OA
HETATM   32  C   MK1     0      17.359  19.964 -22.493  0.00  0.00     0.077 A 
HETATM   33  C   MK1     0      17.751  19.950 -21.014  0.00  0.00    -0.040 A 
HETATM   34  C   MK1     0      17.597  18.507 -20.498  0.00  0.00    -0.010 A 
HETATM   35  C   MK1     0      18.228  21.061 -20.060  0.00  0.00     0.022 A 
HETATM   36  C   MK1     0      17.921  18.175 -19.030  0.00  0.00     0.027 A 
HETATM   37  C   MK1     0      18.399  19.287 -18.076  0.00  0.00     0.005 A 
HETATM   38  C   MK1     0      18.553  20.730 -18.592  0.00  0.00     0.005 A 
ENDBRANCH  28  29
ENDBRANCH  25  26
BRANCH  25  39
HETATM   39  C   MK1     0      16.999  12.991 -20.709  0.00  0.00     0.026 C 
BRANCH  39  40
HETATM   40  C   MK1     0      17.345  13.567 -19.324  0.00  0.00     0.004 A 
HETATM   41  C   MK1     0      16.347  13.429 -18.160  0.00  0.00     0.000 A 
HETATM   42  C   MK1     0      16.693  14.005 -16.775  0.00  0.00     0.000 A 
HETATM   43  C   MK1     0      18.039  14.721 -16.552  0.00  0.00     0.000 A 
HETATM   44  C   MK1     0      19.038  14.859 -17.717  0.00  0.00     0.000 A 
HETATM   45  C   MK1     0      18.691  14.283 -19.101  0.00  0.00     0.000 A 
ENDBRANCH  39  40
ENDBRANCH  25  39
ENDBRANCH  24  25
ENDBRANCH   2  24
TORSDOF 10
ENDMDL
MODEL 2
REMARK VINA RESULT:    -6.240      3.043      6.615
REMARK INTER + INTRA:         -12.801
REMARK INTER:                 -10.591
REMARK INTRA:                  -2.210
REMARK UNBOUND:                -2.913
REMARK  10 active torsions:
REMARK  status: ('A' for Active; 'I' for Inactive)
REMARK    1  A    between atoms: N_5  and  C_13 
REMARK    2  A    between atoms: N_6  and  C_21 
REMARK    3  A    between atoms: N_7  and  C_18 
REMARK       I    between atoms: N_7  and  C_24 
REMARK    4  A    between atoms: C_13  and  C_15 
REMARK    5  A    between atoms: C_15  and  C_16 
REMARK    6  A    between atoms: C_16  and  C_17 
REMARK    7  A    between atoms: C_17  and  C_24 
REMARK    8  A    between atoms: C_17  and  C_25 
REMARK    9  A    between atoms: C_21  and  C_28 
REMARK   10  A    between atoms: C_25  and  C_30 
ROOT
HETATM    1  O   MK1     0      19.159  14.254 -16.540  0.00  0.00    -0.221 OA
HETATM    2  C   MK1     0      19.797  14.242 -17.941  0.00  0.00     0.178 C 
ENDROOT
BRANCH   2   3
HETATM    3  C   MK1     0      20.945  13.265 -18.257  0.00  0.00     0.135 C 
BRANCH   3   4
HETATM    4  N   MK1     0      20.982  11.879 -17.587  0.00  0.00    -0.339 N 
HETATM    5  C   MK1     0      20.981  10.605 -18.452  0.00  0.00     0.123 A 
HETATM    6  C   MK1     0      21.018   9.219 -17.783  0.00  0.00     0.108 A 
HETATM    7  C   MK1     0      20.944  10.717 -19.988  0.00  0.00     0.227 A 
HETATM    8  N   MK1     0      21.055   9.107 -16.247  0.00  0.00    -0.339 N 
HETATM    9  C   MK1     0      21.001   8.728 -18.798  0.00  0.00    -0.089 A 
HETATM   10  C   MK1     0      21.055  10.381 -15.382  0.00  0.00     0.126 A 
HETATM   11  C   MK1     0      21.019  11.766 -16.052  0.00  0.00     0.126 A 
HETATM   12  C   MK1     0      20.980   8.058 -20.184  0.00  0.00     0.134 A 
HETATM   13  N   MK1     0      20.943   9.444 -20.854  0.00  0.00    -0.237 NA
HETATM   14  C   MK1     0      20.958   7.387 -21.571  0.00  0.00     0.037 C 
HETATM   15  C   MK1     0      21.016   6.671 -19.514  0.00  0.00     0.037 C 
HETATM   16  O   MK1     0      20.907  12.104 -20.658  0.00  0.00    -0.168 OA
BRANCH   8  17
HETATM   17  C   MK1     0      21.091   7.720 -15.578  0.00  0.00     0.104 C 
BRANCH  17  18
HETATM   18  C   MK1     0      21.905   7.509 -14.287  0.00  0.00     0.046 A 
HETATM   19  C   MK1     0      23.439   7.650 -14.312  0.00  0.00     0.006 A 
HETATM   20  C   MK1     0      24.253   7.440 -13.023  0.00  0.00     0.026 A 
HETATM   21  C   MK1     0      23.534   7.088 -11.707  0.00  0.00     0.120 A 
HETATM   22  N   MK1     0      22.000   6.946 -11.682  0.00  0.00    -0.295 NA
HETATM   23  C   MK1     0      21.186   7.157 -12.972  0.00  0.00     0.122 A 
ENDBRANCH  17  18
ENDBRANCH   8  17
ENDBRANCH   3   4
ENDBRANCH   2   3
BRANCH   2  24
HETATM   24  C   MK1     0      19.288  15.208 -19.027  0.00  0.00     0.061 C 
BRANCH  24  25
HETATM   25  C   MK1     0      17.794  15.227 -19.401  0.00  0.00     0.002 C 
BRANCH  25  26
HETATM   26  C   MK1     0      16.904  14.013 -19.079  0.00  0.00     0.205 C 
HETATM   27  O   MK1     0      16.371  13.807 -17.649  0.00  0.00    -0.170 OA
HETATM   28  N   MK1     0      16.545  13.004 -20.187  0.00  0.00    -0.219 NA
BRANCH  28  29
HETATM   29  C   MK1     0      15.655  11.791 -19.864  0.00  0.00     0.100 A 
HETATM   30  C   MK1     0      14.213  11.844 -19.350  0.00  0.00     0.130 A 
HETATM   31  O   MK1     0      13.402  13.122 -19.066  0.00  0.00    -0.193 OA
HETATM   32  C   MK1     0      13.720  10.407 -19.168  0.00  0.00     0.077 A 
HETATM   33  C   MK1     0      14.854   9.460 -19.569  0.00  0.00    -0.040 A 
HETATM   34  C   MK1     0      16.056  10.320 -20.001  0.00  0.00    -0.010 A 
HETATM   35  C   MK1     0      14.956   7.923 -19.599  0.00  0.00     0.022 A 
HETATM   36  C   MK1     0      17.360   9.643 -20.464  0.00  0.00     0.027 A 
HETATM   37  C   MK1     0      17.462   8.107 -20.494  0.00  0.00     0.005 A 
HETATM   38  C   MK1     0      16.260   7.247 -20.061  0.00  0.00     0.005 A 
ENDBRANCH  28  29
ENDBRANCH  25  26
BRANCH  25  39
HETATM   39  C   MK1     0      17.190  16.461 -20.098  0.00  0.00     0.026 C 
BRANCH  39  40
HETATM   40  C   MK1     0      17.826  17.849 -19.893  0.00  0.00     0.004 A 
HETATM   41  C   MK1     0      18.455  18.592 -21.086  0.00  0.00     0.000 A 
HETATM   42  C   MK1     0      19.091  19.980 -20.881  0.00  0.00     0.000 A 
HETATM   43  C   MK1     0      19.097  20.625 -19.482  0.00  0.00     0.000 A 
HETATM   44  C   MK1     0      18.467  19.882 -18.289  0.00  0.00     0.000 A 
HETATM   45  C   MK1     0      17.832  18.495 -18.494  0.00  0.00     0.000 A 
ENDBRANCH  39  40
ENDBRANCH  25  39
ENDBRANCH  24  25
ENDBRANCH   2  24
TORSDOF 10
ENDMDL
MODEL 3
REMARK VINA RESULT:    -6.127      3.993      8.253
REMARK INTER + INTRA:         -12.621
REMARK INTER:                 -10.520
REMARK INTRA:                  -2.101
REMARK UNBOUND:                -2.913
REMARK  10 active torsions:
REMARK  status: ('A' for Active; 'I' for Inactive)
REMARK    1  A    between atoms: N_5  and  C_13 
REMARK    2  A    between atoms: N_6  and  C_21 
REMARK    3  A    between atoms: N_7  and  C_18 
REMARK       I    between atoms: N_7  and  C_24 
REMARK    4  A    between atoms: C_13  and  C_15 
REMARK    5  A    between atoms: C_15  and  C_16 
REMARK    6  A    between atoms: C_16  and  C_17 
REMARK    7  A    between atoms: C_17  and  C_24 
REMARK    8  A    between atoms: C_17  and  C_25 
REMARK    9  A    between atoms: C_21  and  C_28 
REMARK   10  A    between atoms: C_25  and  C_30 
ROOT
HETATM    1  O   MK1     0      22.886   8.603 -19.283  0.00  0.00    -0.221 OA
HETATM    2  C   MK1     0      21.540   8.854 -18.578  0.00  0.00     0.178 C 
ENDROOT
BRANCH   2   3
HETATM    3  C   MK1     0      20.862   7.720 -17.786  0.00  0.00     0.135 C 
BRANCH   3   4
HETATM    4  N   MK1     0      21.134   7.565 -16.279  0.00  0.00    -0.339 N 
HETATM    5  C   MK1     0      21.694   6.240 -15.729  0.00  0.00     0.123 A 
HETATM    6  C   MK1     0      21.967   6.085 -14.221  0.00  0.00     0.108 A 
HETATM    7  C   MK1     0      21.982   5.069 -16.687  0.00  0.00     0.227 A 
HETATM    8  N   MK1     0      21.678   7.256 -13.263  0.00  0.00    -0.339 N 
HETATM    9  C   MK1     0      22.325   5.030 -14.394  0.00  0.00    -0.089 A 
HETATM   10  C   MK1     0      21.118   8.581 -13.812  0.00  0.00     0.126 A 
HETATM   11  C   MK1     0      20.846   8.736 -15.320  0.00  0.00     0.126 A 
HETATM   12  C   MK1     0      22.814   3.590 -14.630  0.00  0.00     0.134 A 
HETATM   13  N   MK1     0      22.543   3.744 -16.138  0.00  0.00    -0.237 NA
HETATM   14  C   MK1     0      23.304   2.148 -14.867  0.00  0.00     0.037 C 
HETATM   15  C   MK1     0      23.087   3.435 -13.122  0.00  0.00     0.037 C 
HETATM   16  O   MK1     0      21.710   5.225 -18.195  0.00  0.00    -0.168 OA
BRANCH   8  17
HETATM   17  C   MK1     0      21.951   7.101 -11.755  0.00  0.00     0.104 C 
BRANCH  17  18
HETATM   18  C   MK1     0      23.390   6.883 -11.251  0.00  0.00     0.046 A 
HETATM   19  C   MK1     0      24.572   7.534 -11.992  0.00  0.00     0.006 A 
HETATM   20  C   MK1     0      26.011   7.317 -11.489  0.00  0.00     0.026 A 
HETATM   21  C   MK1     0      26.268   6.448 -10.243  0.00  0.00     0.120 A 
HETATM   22  N   MK1     0      25.085   5.797  -9.501  0.00  0.00    -0.295 NA
HETATM   23  C   MK1     0      23.646   6.015 -10.005  0.00  0.00     0.122 A 
ENDBRANCH  17  18
ENDBRANCH   8  17
ENDBRANCH   3   4
ENDBRANCH   2   3
BRANCH   2  24
HETATM   24  C   MK1     0      20.871  10.238 -18.665  0.00  0.00     0.061 C 
BRANCH  24  25
HETATM   25  C   MK1     0      21.531  11.456 -17.993  0.00  0.00     0.002 C 
BRANCH  25  26
HETATM   26  C   MK1     0      22.927  11.923 -18.447  0.00  0.00     0.205 C 
HETATM   27  O   MK1     0      23.361  11.740 -19.913  0.00  0.00    -0.170 OA
HETATM   28  N   MK1     0      23.889  12.574 -17.435  0.00  0.00    -0.219 NA
BRANCH  28  29
HETATM   29  C   MK1     0      25.284  13.040 -17.888  0.00  0.00     0.100 A 
HETATM   30  C   MK1     0      26.577  12.223 -17.807  0.00  0.00     0.130 A 
HETATM   31  O   MK1     0      26.707  10.790 -17.256  0.00  0.00    -0.193 OA
HETATM   32  C   MK1     0      27.716  13.078 -18.368  0.00  0.00     0.077 A 
HETATM   33  C   MK1     0      27.132  14.426 -18.798  0.00  0.00    -0.040 A 
HETATM   34  C   MK1     0      25.621  14.402 -18.500  0.00  0.00    -0.010 A 
HETATM   35  C   MK1     0      27.774  15.678 -19.424  0.00  0.00     0.022 A 
HETATM   36  C   MK1     0      24.753  15.631 -18.828  0.00  0.00     0.027 A 
HETATM   37  C   MK1     0      25.395  16.884 -19.454  0.00  0.00     0.005 A 
HETATM   38  C   MK1     0      26.906  16.907 -19.752  0.00  0.00     0.005 A 
ENDBRANCH  28  29
ENDBRANCH  25  26
BRANCH  25  39
HETATM   39  C   MK1     0      20.797  12.208 -16.867  0.00  0.00     0.026 C 
BRANCH  39  40
HETATM   40  C   MK1     0      19.832  13.358 -17.212  0.00  0.00     0.004 A 
HETATM   41  C   MK1     0      20.148  14.304 -18.384  0.00  0.00     0.000 A 
HETATM   42  C   MK1     0      19.183  15.454 -18.728  0.00  0.00     0.000 A 
HETATM   43  C   MK1     0      17.901  15.657 -17.899  0.00  0.00     0.000 A 
HETATM   44  C   MK1     0      17.585  14.710 -16.726  0.00  0.00     0.000 A 
HETATM   45  C   MK1     0      18.550  13.561 -16.383  0.00  0.00     0.000 A 
ENDBRANCH  39  40
ENDBRANCH  25  39
ENDBRANCH  24  25
ENDBRANCH   2  24
TORSDOF 10
ENDMDL
MODEL 4
REMARK VINA RESULT:    -6.088      4.177      8.915
REMARK INTER + INTRA:         -12.559
REMARK INTER:                 -10.713
REMARK INTRA:                  -1.846
REMARK UNBOUND:                -2.913
REMARK  10 active torsions:
REMARK  status: ('A' for Active; 'I' for Inactive)
REMARK    1  A    between atoms: N_5  and  C_13 
REMARK    2  A    between atoms: N_6  and  C_21 
REMARK    3  A    between atoms: N_7  and  C_18 
REMARK       I    between atoms: N_7  and  C_24 
REMARK    4  A    between atoms: C_13  and  C_15 
REMARK    5  A    between atoms: C_15  and  C_16 
REMARK    6  A    between atoms: C_16  and  C_17 
REMARK    7  A    between atoms: C_17  and  C_24 
REMARK    8  A    between atoms: C_17  and  C_25 
REMARK    9  A    between atoms: C_21  and  C_28 
REMARK   10  A    between atoms: C_25  and  C_30 
ROOT
HETATM    1  O   MK1     0      23.034   7.967 -18.089  0.00  0.00    -0.221 OA
HETATM    2  C   MK1     0      21.689   8.407 -17.481  0.00  0.00     0.178 C 
ENDROOT
BRANCH   2   3
HETATM    3  C   MK1     0      20.998   7.528 -16.422  0.00  0.00     0.135 C 
BRANCH   3   4
HETATM    4  N   MK1     0      21.796   7.011 -15.211  0.00  0.00    -0.339 N 
HETATM    5  C   MK1     0      22.087   5.506 -15.066  0.00  0.00     0.123 A 
HETATM    6  C   MK1     0      22.885   4.988 -13.855  0.00  0.00     0.108 A 
HETATM    7  C   MK1     0      21.579   4.517 -16.132  0.00  0.00     0.227 A 
HETATM    8  N   MK1     0      23.392   5.977 -12.788  0.00  0.00    -0.339 N 
HETATM    9  C   MK1     0      22.793   3.934 -14.244  0.00  0.00    -0.089 A 
HETATM   10  C   MK1     0      23.101   7.482 -12.934  0.00  0.00     0.126 A 
HETATM   11  C   MK1     0      22.304   7.999 -14.145  0.00  0.00     0.126 A 
HETATM   12  C   MK1     0      22.668   2.495 -14.776  0.00  0.00     0.134 A 
HETATM   13  N   MK1     0      21.869   3.011 -15.988  0.00  0.00    -0.237 NA
HETATM   14  C   MK1     0      22.542   1.054 -15.309  0.00  0.00     0.037 C 
HETATM   15  C   MK1     0      23.466   1.977 -13.565  0.00  0.00     0.037 C 
HETATM   16  O   MK1     0      20.781   5.035 -17.344  0.00  0.00    -0.168 OA
BRANCH   8  17
HETATM   17  C   MK1     0      24.190   5.459 -11.577  0.00  0.00     0.104 C 
BRANCH  17  18
HETATM   18  C   MK1     0      23.450   4.878 -10.358  0.00  0.00     0.046 A 
HETATM   19  C   MK1     0      22.663   5.810  -9.418  0.00  0.00     0.006 A 
HETATM   20  C   MK1     0      21.922   5.231  -8.200  0.00  0.00     0.026 A 
HETATM   21  C   MK1     0      21.968   3.716  -7.920  0.00  0.00     0.120 A 
HETATM   22  N   MK1     0      22.754   2.783  -8.860  0.00  0.00    -0.295 NA
HETATM   23  C   MK1     0      23.495   3.364 -10.079  0.00  0.00     0.122 A 
ENDBRANCH  17  18
ENDBRANCH   8  17
ENDBRANCH   3   4
ENDBRANCH   2   3
BRANCH   2  24
HETATM   24  C   MK1     0      21.036   9.727 -17.930  0.00  0.00     0.061 C 
BRANCH  24  25
HETATM   25  C   MK1     0      21.642  11.074 -17.495  0.00  0.00     0.002 C 
BRANCH  25  26
HETATM   26  C   MK1     0      23.010  11.518 -18.048  0.00  0.00     0.205 C 
HETATM   27  O   MK1     0      23.511  10.964 -19.395  0.00  0.00    -0.170 OA
HETATM   28  N   MK1     0      23.876  12.514 -17.255  0.00  0.00    -0.219 NA
BRANCH  28  29
HETATM   29  C   MK1     0      25.242  12.957 -17.808  0.00  0.00     0.100 A 
HETATM   30  C   MK1     0      26.521  12.114 -17.827  0.00  0.00     0.130 A 
HETATM   31  O   MK1     0      26.663  10.675 -17.296  0.00  0.00    -0.193 OA
HETATM   32  C   MK1     0      27.632  12.951 -18.465  0.00  0.00     0.077 A 
HETATM   33  C   MK1     0      27.045  14.313 -18.843  0.00  0.00    -0.040 A 
HETATM   34  C   MK1     0      25.560  14.317 -18.435  0.00  0.00    -0.010 A 
HETATM   35  C   MK1     0      27.664  15.557 -19.507  0.00  0.00     0.022 A 
HETATM   36  C   MK1     0      24.695  15.565 -18.690  0.00  0.00     0.027 A 
HETATM   37  C   MK1     0      25.314  16.809 -19.354  0.00  0.00     0.005 A 
HETATM   38  C   MK1     0      26.799  16.805 -19.763  0.00  0.00     0.005 A 
ENDBRANCH  28  29
ENDBRANCH  25  26
BRANCH  25  39
HETATM   39  C   MK1     0      20.882  11.978 -16.507  0.00  0.00     0.026 C 
BRANCH  39  40
HETATM   40  C   MK1     0      20.050  13.164 -17.032  0.00  0.00     0.004 A 
HETATM   41  C   MK1     0      18.771  13.595 -16.292  0.00  0.00     0.000 A 
HETATM   42  C   MK1     0      17.940  14.781 -16.817  0.00  0.00     0.000 A 
HETATM   43  C   MK1     0      18.388  15.535 -18.083  0.00  0.00     0.000 A 
HETATM   44  C   MK1     0      19.668  15.103 -18.824  0.00  0.00     0.000 A 
HETATM   45  C   MK1     0      20.498  13.918 -18.298  0.00  0.00     0.000 A 
ENDBRANCH  39  40
ENDBRANCH  25  39
ENDBRANCH  24  25
ENDBRANCH   2  24
TORSDOF 10
ENDMDL
MODEL 5
REMARK VINA RESULT:    -6.073     11.881     16.391
REMARK INTER + INTRA:         -12.537
REMARK INTER:                 -10.246
REMARK INTRA:                  -2.290
REMARK UNBOUND:                -2.913
REMARK  10 active torsions:
REMARK  status: ('A' for Active; 'I' for Inactive)
REMARK    1  A    between atoms: N_5  and  C_13 
REMARK    2  A    between atoms: N_6  and  C_21 
REMARK    3  A    between atoms: N_7  and  C_18 
REMARK       I    between atoms: N_7  and  C_24 
REMARK    4  A    between atoms: C_13  and  C_15 
REMARK    5  A    between atoms: C_15  and  C_16 
REMARK    6  A    between atoms: C_16  and  C_17 
REMARK    7  A    between atoms: C_17  and  C_24 
REMARK    8  A    between atoms: C_17  and  C_25 
REMARK    9  A    between atoms: C_21  and  C_28 
REMARK   10  A    between atoms: C_25  and  C_30 
ROOT
HETATM    1  O   MK1     0      30.475  13.392 -10.574  0.00  0.00    -0.221 OA
HETATM    2  C   MK1     0      30.058  14.855 -10.332  0.00  0.00     0.178 C 
ENDROOT
BRANCH   2   3
HETATM    3  C   MK1     0      31.122  15.968 -10.328  0.00  0.00     0.135 C 
BRANCH   3   4
HETATM    4  N   MK1     0      30.845  17.299 -11.050  0.00  0.00    -0.339 N 
HETATM    5  C   MK1     0      31.014  18.633 -10.298  0.00  0.00     0.123 A 
HETATM    6  C   MK1     0      30.737  19.965 -11.020  0.00  0.00     0.108 A 
HETATM    7  C   MK1     0      31.461  18.634  -8.824  0.00  0.00     0.227 A 
HETATM    8  N   MK1     0      30.291  19.963 -12.494  0.00  0.00    -0.339 N 
HETATM    9  C   MK1     0      30.998  20.529 -10.079  0.00  0.00    -0.089 A 
HETATM   10  C   MK1     0      30.122  18.630 -13.245  0.00  0.00     0.126 A 
HETATM   11  C   MK1     0      30.399  17.298 -12.524  0.00  0.00     0.126 A 
HETATM   12  C   MK1     0      31.353  21.299  -8.794  0.00  0.00     0.134 A 
HETATM   13  N   MK1     0      31.630  19.967  -8.071  0.00  0.00    -0.237 NA
HETATM   14  C   MK1     0      31.709  22.070  -7.508  0.00  0.00     0.037 C 
HETATM   15  C   MK1     0      31.076  22.631  -9.515  0.00  0.00     0.037 C 
HETATM   16  O   MK1     0      31.738  17.302  -8.103  0.00  0.00    -0.168 OA
BRANCH   8  17
HETATM   17  C   MK1     0      30.014  21.295 -13.215  0.00  0.00     0.104 C 
BRANCH  17  18
HETATM   18  C   MK1     0      29.418  21.293 -14.635  0.00  0.00     0.046 A 
HETATM   19  C   MK1     0      27.915  21.027 -14.839  0.00  0.00     0.006 A 
HETATM   20  C   MK1     0      27.319  21.024 -16.259  0.00  0.00     0.026 A 
HETATM   21  C   MK1     0      28.226  21.287 -17.476  0.00  0.00     0.120 A 
HETATM   22  N   MK1     0      29.730  21.553 -17.272  0.00  0.00    -0.295 NA
HETATM   23  C   MK1     0      30.325  21.555 -15.852  0.00  0.00     0.122 A 
ENDBRANCH  17  18
ENDBRANCH   8  17
ENDBRANCH   3   4
ENDBRANCH   2   3
BRANCH   2  24
HETATM   24  C   MK1     0      28.578  15.204 -10.094  0.00  0.00     0.061 C 
BRANCH  24  25
HETATM   25  C   MK1     0      27.836  14.624  -8.875  0.00  0.00     0.002 C 
BRANCH  25  26
HETATM   26  C   MK1     0      28.124  15.172  -7.465  0.00  0.00     0.205 C 
HETATM   27  O   MK1     0      29.525  15.008  -6.848  0.00  0.00    -0.170 OA
HETATM   28  N   MK1     0      27.012  15.884  -6.672  0.00  0.00    -0.219 NA
BRANCH  28  29
HETATM   29  C   MK1     0      27.301  16.432  -5.263  0.00  0.00     0.100 A 
HETATM   30  C   MK1     0      26.860  15.794  -3.943  0.00  0.00     0.130 A 
HETATM   31  O   MK1     0      26.050  14.492  -3.793  0.00  0.00    -0.193 OA
HETATM   32  C   MK1     0      27.364  16.675  -2.797  0.00  0.00     0.077 A 
HETATM   33  C   MK1     0      28.119  17.860  -3.405  0.00  0.00    -0.040 A 
HETATM   34  C   MK1     0      28.079  17.709  -4.937  0.00  0.00    -0.010 A 
HETATM   35  C   MK1     0      28.840  19.063  -2.768  0.00  0.00     0.022 A 
HETATM   36  C   MK1     0      28.761  18.761  -5.832  0.00  0.00     0.027 A 
HETATM   37  C   MK1     0      29.482  19.964  -5.195  0.00  0.00     0.005 A 
HETATM   38  C   MK1     0      29.522  20.115  -3.663  0.00  0.00     0.005 A 
ENDBRANCH  28  29
ENDBRANCH  25  26
BRANCH  25  39
HETATM   39  C   MK1     0      26.804  13.496  -9.066  0.00  0.00     0.026 C 
BRANCH  39  40
HETATM   40  C   MK1     0      27.191  12.039  -8.753  0.00  0.00     0.004 A 
HETATM   41  C   MK1     0      27.095  11.509  -7.311  0.00  0.00     0.000 A 
HETATM   42  C   MK1     0      27.481  10.051  -6.998  0.00  0.00     0.000 A 
HETATM   43  C   MK1     0      27.965   9.123  -8.129  0.00  0.00     0.000 A 
HETATM   44  C   MK1     0      28.061   9.654  -9.572  0.00  0.00     0.000 A 
HETATM   45  C   MK1     0      27.674  11.111  -9.884  0.00  0.00     0.000 A 
ENDBRANCH  39  40
ENDBRANCH  25  39
ENDBRANCH  24  25
ENDBRANCH   2  24
TORSDOF 10
ENDMDL
MODEL 6
REMARK VINA RESULT:    -5.887      4.082      7.473
REMARK INTER + INTRA:         -12.241
REMARK INTER:                  -8.982
REMARK INTRA:                  -3.259
REMARK UNBOUND:                -2.913
REMARK  10 active torsions:
REMARK  status: ('A' for Active; 'I' for Inactive)
REMARK    1  A    between atoms: N_5  and  C_13 
REMARK    2  A    between atoms: N_6  and  C_21 
REMARK    3  A    between atoms: N_7  and  C_18 
REMARK       I    between atoms: N_7  and  C_24 
REMARK    4  A    between atoms: C_13  and  C_15 
REMARK    5  A    between atoms: C_15  and  C_16 
REMARK    6  A    between atoms: C_16  and  C_17 
REMARK    7  A    between atoms: C_17  and  C_24 
REMARK    8  A    between atoms: C_17  and  C_25 
REMARK    9  A    between atoms: C_21  and  C_28 
REMARK   10  A    between atoms: C_25  and  C_30 
ROOT
HETATM    1  O   MK1     0      16.891  12.072 -24.723  0.00  0.00    -0.221 OA
HETATM    2  C   MK1     0      17.311  11.518 -23.349  0.00  0.00     0.178 C 
ENDROOT
BRANCH   2   3
HETATM    3  C   MK1     0      16.356  10.599 -22.565  0.00  0.00     0.135 C 
BRANCH   3   4
HETATM    4  N   MK1     0      15.335  11.206 -21.585  0.00  0.00    -0.339 N 
HETATM    5  C   MK1     0      14.750  10.345 -20.450  0.00  0.00     0.123 A 
HETATM    6  C   MK1     0      13.729  10.952 -19.470  0.00  0.00     0.108 A 
HETATM    7  C   MK1     0      15.186   8.876 -20.295  0.00  0.00     0.227 A 
HETATM    8  N   MK1     0      13.293  12.421 -19.625  0.00  0.00    -0.339 N 
HETATM    9  C   MK1     0      13.666   9.967 -18.925  0.00  0.00    -0.089 A 
HETATM   10  C   MK1     0      13.878  13.282 -20.760  0.00  0.00     0.126 A 
HETATM   11  C   MK1     0      14.898  12.675 -21.739  0.00  0.00     0.126 A 
HETATM   12  C   MK1     0      13.580   8.622 -18.181  0.00  0.00     0.134 A 
HETATM   13  N   MK1     0      14.602   8.014 -19.161  0.00  0.00    -0.237 NA
HETATM   14  C   MK1     0      13.495   7.276 -17.436  0.00  0.00     0.037 C 
HETATM   15  C   MK1     0      12.559   9.229 -17.200  0.00  0.00     0.037 C 
HETATM   16  O   MK1     0      16.207   8.269 -21.276  0.00  0.00    -0.168 OA
BRANCH   8  17
HETATM   17  C   MK1     0      12.272  13.028 -18.645  0.00  0.00     0.104 C 
BRANCH  17  18
HETATM   18  C   MK1     0      10.818  12.519 -18.634  0.00  0.00     0.046 A 
HETATM   19  C   MK1     0      10.242  11.807 -19.872  0.00  0.00     0.006 A 
HETATM   20  C   MK1     0       8.790  11.297 -19.863  0.00  0.00     0.026 A 
HETATM   21  C   MK1     0       7.911  11.500 -18.613  0.00  0.00     0.120 A 
HETATM   22  N   MK1     0       8.487  12.212 -17.375  0.00  0.00    -0.295 NA
HETATM   23  C   MK1     0       9.940  12.721 -17.385  0.00  0.00     0.122 A 
ENDBRANCH  17  18
ENDBRANCH   8  17
ENDBRANCH   3   4
ENDBRANCH   2   3
BRANCH   2  24
HETATM   24  C   MK1     0      18.685  11.882 -22.759  0.00  0.00     0.061 C 
BRANCH  24  25
HETATM   25  C   MK1     0      18.772  12.723 -21.472  0.00  0.00     0.002 C 
BRANCH  25  26
HETATM   26  C   MK1     0      18.915  14.255 -21.560  0.00  0.00     0.205 C 
HETATM   27  O   MK1     0      20.312  14.901 -21.501  0.00  0.00    -0.170 OA
HETATM   28  N   MK1     0      17.663  15.139 -21.708  0.00  0.00    -0.219 NA
BRANCH  28  29
HETATM   29  C   MK1     0      17.807  16.669 -21.797  0.00  0.00     0.100 A 
HETATM   30  C   MK1     0      17.821  17.498 -23.084  0.00  0.00     0.130 A 
HETATM   31  O   MK1     0      17.693  16.946 -24.516  0.00  0.00    -0.193 OA
HETATM   32  C   MK1     0      17.984  18.970 -22.700  0.00  0.00     0.077 A 
HETATM   33  C   MK1     0      18.071  19.057 -21.174  0.00  0.00    -0.040 A 
HETATM   34  C   MK1     0      17.961  17.627 -20.613  0.00  0.00    -0.010 A 
HETATM   35  C   MK1     0      18.236  20.250 -20.214  0.00  0.00     0.022 A 
HETATM   36  C   MK1     0      18.017  17.391 -19.092  0.00  0.00     0.027 A 
HETATM   37  C   MK1     0      18.182  18.584 -18.132  0.00  0.00     0.005 A 
HETATM   38  C   MK1     0      18.292  20.014 -18.693  0.00  0.00     0.005 A 
ENDBRANCH  28  29
ENDBRANCH  25  26
BRANCH  25  39
HETATM   39  C   MK1     0      18.715  12.035 -20.095  0.00  0.00     0.026 C 
BRANCH  39  40
HETATM   40  C   MK1     0      18.264  12.828 -18.855  0.00  0.00     0.004 A 
HETATM   41  C   MK1     0      16.767  13.087 -18.609  0.00  0.00     0.000 A 
HETATM   42  C   MK1     0      16.315  13.881 -17.369  0.00  0.00     0.000 A 
HETATM   43  C   MK1     0      17.362  14.416 -16.374  0.00  0.00     0.000 A 
HETATM   44  C   MK1     0      18.861  14.157 -16.620  0.00  0.00     0.000 A 
HETATM   45  C   MK1     0      19.311  13.363 -17.860  0.00  0.00     0.000 A 
ENDBRANCH  39  40
ENDBRANCH  25  39
ENDBRANCH  24  25
ENDBRANCH   2  24
TORSDOF 10
ENDMDL
MODEL 7
REMARK VINA RESULT:    -5.880     13.966     18.192
REMARK INTER + INTRA:         -12.231
REMARK INTER:                 -10.250
REMARK INTRA:                  -1.981
REMARK UNBOUND:                -2.913
REMARK  10 active torsions:
REMARK  status: ('A' for Active; 'I' for Inactive)
REMARK    1  A    between atoms: N_5  and  C_13 
REMARK    2  A    between atoms: N_6  and  C_21 
REMARK    3  A    between atoms: N_7  and  C_18 
REMARK       I    between atoms: N_7  and  C_24 
REMARK    4  A    between atoms: C_13  and  C_15 
REMARK    5  A    between atoms: C_15  and  C_16 
REMARK    6  A    between atoms: C_16  and  C_17 
REMARK    7  A    between atoms: C_17  and  C_24 
REMARK    8  A    between atoms: C_17  and  C_25 
REMARK    9  A    between atoms: C_21  and  C_28 
REMARK   10  A    between atoms: C_25  and  C_30 
ROOT
HETATM    1  O   MK1     0      32.292  16.013  -6.882  0.00  0.00    -0.221 OA
HETATM    2  C   MK1     0      30.796  16.336  -6.713  0.00  0.00     0.178 C 
ENDROOT
BRANCH   2   3
HETATM    3  C   MK1     0      30.279  17.760  -6.987  0.00  0.00     0.135 C 
BRANCH   3   4
HETATM    4  N   MK1     0      30.608  18.454  -8.322  0.00  0.00    -0.339 N 
HETATM    5  C   MK1     0      30.954  19.954  -8.346  0.00  0.00     0.123 A 
HETATM    6  C   MK1     0      31.283  20.648  -9.680  0.00  0.00     0.108 A 
HETATM    7  C   MK1     0      30.972  20.761  -7.034  0.00  0.00     0.227 A 
HETATM    8  N   MK1     0      31.265  19.841 -10.992  0.00  0.00    -0.339 N 
HETATM    9  C   MK1     0      31.437  21.623  -9.136  0.00  0.00    -0.089 A 
HETATM   10  C   MK1     0      30.919  18.341 -10.969  0.00  0.00     0.126 A 
HETATM   11  C   MK1     0      30.590  17.648  -9.634  0.00  0.00     0.126 A 
HETATM   12  C   MK1     0      31.648  22.955  -8.392  0.00  0.00     0.134 A 
HETATM   13  N   MK1     0      31.319  22.261  -7.056  0.00  0.00    -0.237 NA
HETATM   14  C   MK1     0      31.858  24.287  -7.647  0.00  0.00     0.037 C 
HETATM   15  C   MK1     0      31.977  23.649  -9.727  0.00  0.00     0.037 C 
HETATM   16  O   MK1     0      30.643  20.066  -5.699  0.00  0.00    -0.168 OA
BRANCH   8  17
HETATM   17  C   MK1     0      31.594  20.536 -12.327  0.00  0.00     0.104 C 
BRANCH  17  18
HETATM   18  C   MK1     0      30.807  21.787 -12.758  0.00  0.00     0.046 A 
HETATM   19  C   MK1     0      29.488  22.150 -12.050  0.00  0.00     0.006 A 
HETATM   20  C   MK1     0      28.701  23.400 -12.480  0.00  0.00     0.026 A 
HETATM   21  C   MK1     0      29.233  24.291 -13.620  0.00  0.00     0.120 A 
HETATM   22  N   MK1     0      30.552  23.929 -14.328  0.00  0.00    -0.295 NA
HETATM   23  C   MK1     0      31.339  22.677 -13.897  0.00  0.00     0.122 A 
ENDBRANCH  17  18
ENDBRANCH   8  17
ENDBRANCH   3   4
ENDBRANCH   2   3
BRANCH   2  24
HETATM   24  C   MK1     0      29.816  15.234  -6.269  0.00  0.00     0.061 C 
BRANCH  24  25
HETATM   25  C   MK1     0      28.301  15.509  -6.259  0.00  0.00     0.002 C 
BRANCH  25  26
HETATM   26  C   MK1     0      27.624  16.043  -4.983  0.00  0.00     0.205 C 
HETATM   27  O   MK1     0      26.089  16.147  -4.912  0.00  0.00    -0.170 OA
HETATM   28  N   MK1     0      28.481  16.474  -3.778  0.00  0.00    -0.219 NA
BRANCH  28  29
HETATM   29  C   MK1     0      27.803  17.008  -2.503  0.00  0.00     0.100 A 
HETATM   30  C   MK1     0      26.854  16.224  -1.593  0.00  0.00     0.130 A 
HETATM   31  O   MK1     0      26.410  14.763  -1.794  0.00  0.00    -0.193 OA
HETATM   32  C   MK1     0      26.422  17.145  -0.449  0.00  0.00     0.077 A 
HETATM   33  C   MK1     0      27.103  18.501  -0.647  0.00  0.00    -0.040 A 
HETATM   34  C   MK1     0      27.961  18.416  -1.923  0.00  0.00    -0.010 A 
HETATM   35  C   MK1     0      27.059  19.809   0.166  0.00  0.00     0.022 A 
HETATM   36  C   MK1     0      28.775  19.639  -2.387  0.00  0.00     0.027 A 
HETATM   37  C   MK1     0      28.730  20.947  -1.574  0.00  0.00     0.005 A 
HETATM   38  C   MK1     0      27.872  21.032  -0.298  0.00  0.00     0.005 A 
ENDBRANCH  28  29
ENDBRANCH  25  26
BRANCH  25  39
HETATM   39  C   MK1     0      27.462  15.250  -7.524  0.00  0.00     0.026 C 
BRANCH  39  40
HETATM   40  C   MK1     0      27.715  13.989  -8.371  0.00  0.00     0.004 A 
HETATM   41  C   MK1     0      28.663  14.053  -9.583  0.00  0.00     0.000 A 
HETATM   42  C   MK1     0      28.916  12.792 -10.430  0.00  0.00     0.000 A 
HETATM   43  C   MK1     0      28.221  11.467 -10.065  0.00  0.00     0.000 A 
HETATM   44  C   MK1     0      27.273  11.403  -8.853  0.00  0.00     0.000 A 
HETATM   45  C   MK1     0      27.020  12.664  -8.007  0.00  0.00     0.000 A 
ENDBRANCH  39  40
ENDBRANCH  25  39
ENDBRANCH  24  25
ENDBRANCH   2  24
TORSDOF 10
ENDMDL
MODEL 8
REMARK VINA RESULT:    -5.836      1.622      1.906
REMARK INTER + INTRA:         -12.161
REMARK INTER:                  -8.974
REMARK INTRA:                  -3.187
REMARK UNBOUND:                -2.913
REMARK  10 active torsions:
REMARK  status: ('A' for Active; 'I' for Inactive)
REMARK    1  A    between atoms: N_5  and  C_13 
REMARK    2  A    between atoms: N_6  and  C_21 
REMARK    3  A    between atoms: N_7  and  C_18 
REMARK       I    between atoms: N_7  and  C_24 
REMARK    4  A    between atoms: C_13  and  C_15 
REMARK    5  A    between atoms: C_15  and  C_16 
REMARK    6  A    between atoms: C_16  and  C_17 
REMARK    7  A    between atoms: C_17  and  C_24 
REMARK    8  A    between atoms: C_17  and  C_25 
REMARK    9  A    between atoms: C_21  and  C_28 
REMARK   10  A    between atoms: C_25  and  C_30 
ROOT
HETATM    1  O   MK1     0      19.428  12.985 -25.163  0.00  0.00    -0.221 OA
HETATM    2  C   MK1     0      19.956  12.555 -23.782  0.00  0.00     0.178 C 
ENDROOT
BRANCH   2   3
HETATM    3  C   MK1     0      21.446  12.737 -23.436  0.00  0.00     0.135 C 
BRANCH   3   4
HETATM    4  N   MK1     0      22.051  11.996 -22.230  0.00  0.00    -0.339 N 
HETATM    5  C   MK1     0      22.760  12.789 -21.116  0.00  0.00     0.123 A 
HETATM    6  C   MK1     0      23.366  12.048 -19.909  0.00  0.00     0.108 A 
HETATM    7  C   MK1     0      22.862  14.323 -21.208  0.00  0.00     0.227 A 
HETATM    8  N   MK1     0      23.263  10.514 -19.817  0.00  0.00    -0.339 N 
HETATM    9  C   MK1     0      23.708  13.032 -19.477  0.00  0.00    -0.089 A 
HETATM   10  C   MK1     0      22.555   9.722 -20.931  0.00  0.00     0.126 A 
HETATM   11  C   MK1     0      21.949  10.462 -22.137  0.00  0.00     0.126 A 
HETATM   12  C   MK1     0      24.176  14.375 -18.888  0.00  0.00     0.134 A 
HETATM   13  N   MK1     0      23.571  15.116 -20.094  0.00  0.00    -0.237 NA
HETATM   14  C   MK1     0      24.644  15.719 -18.297  0.00  0.00     0.037 C 
HETATM   15  C   MK1     0      24.782  13.635 -17.681  0.00  0.00     0.037 C 
HETATM   16  O   MK1     0      22.256  15.063 -22.415  0.00  0.00    -0.168 OA
BRANCH   8  17
HETATM   17  C   MK1     0      23.869   9.774 -18.610  0.00  0.00     0.104 C 
BRANCH  17  18
HETATM   18  C   MK1     0      23.084   9.685 -17.288  0.00  0.00     0.046 A 
HETATM   19  C   MK1     0      23.700   8.964 -16.073  0.00  0.00     0.006 A 
HETATM   20  C   MK1     0      22.916   8.875 -14.752  0.00  0.00     0.026 A 
HETATM   21  C   MK1     0      21.514   9.506 -14.643  0.00  0.00     0.120 A 
HETATM   22  N   MK1     0      20.899  10.226 -15.857  0.00  0.00    -0.295 NA
HETATM   23  C   MK1     0      21.684  10.315 -17.179  0.00  0.00     0.122 A 
ENDBRANCH  17  18
ENDBRANCH   8  17
ENDBRANCH   3   4
ENDBRANCH   2   3
BRANCH   2  24
HETATM   24  C   MK1     0      18.995  11.944 -22.746  0.00  0.00     0.061 C 
BRANCH  24  25
HETATM   25  C   MK1     0      18.309  12.848 -21.705  0.00  0.00     0.002 C 
BRANCH  25  26
HETATM   26  C   MK1     0      18.233  14.369 -21.936  0.00  0.00     0.205 C 
HETATM   27  O   MK1     0      17.135  14.955 -22.843  0.00  0.00    -0.170 OA
HETATM   28  N   MK1     0      19.254  15.304 -21.261  0.00  0.00    -0.219 NA
BRANCH  28  29
HETATM   29  C   MK1     0      19.178  16.823 -21.493  0.00  0.00     0.100 A 
HETATM   30  C   MK1     0      19.507  17.552 -22.799  0.00  0.00     0.130 A 
HETATM   31  O   MK1     0      19.973  16.891 -24.110  0.00  0.00    -0.193 OA
HETATM   32  C   MK1     0      19.293  19.051 -22.574  0.00  0.00     0.077 A 
HETATM   33  C   MK1     0      18.831  19.254 -21.129  0.00  0.00    -0.040 A 
HETATM   34  C   MK1     0      18.759  17.871 -20.457  0.00  0.00    -0.010 A 
HETATM   35  C   MK1     0      18.463  20.519 -20.330  0.00  0.00     0.022 A 
HETATM   36  C   MK1     0      18.320  17.751 -18.986  0.00  0.00     0.027 A 
HETATM   37  C   MK1     0      17.952  19.015 -18.187  0.00  0.00     0.005 A 
HETATM   38  C   MK1     0      18.024  20.399 -18.858  0.00  0.00     0.005 A 
ENDBRANCH  28  29
ENDBRANCH  25  26
BRANCH  25  39
HETATM   39  C   MK1     0      17.698  12.232 -20.432  0.00  0.00     0.026 C 
BRANCH  39  40
HETATM   40  C   MK1     0      17.945  12.892 -19.063  0.00  0.00     0.004 A 
HETATM   41  C   MK1     0      16.780  13.560 -18.308  0.00  0.00     0.000 A 
HETATM   42  C   MK1     0      17.027  14.220 -16.939  0.00  0.00     0.000 A 
HETATM   43  C   MK1     0      18.439  14.212 -16.324  0.00  0.00     0.000 A 
HETATM   44  C   MK1     0      19.604  13.544 -17.079  0.00  0.00     0.000 A 
HETATM   45  C   MK1     0      19.357  12.885 -18.447  0.00  0.00     0.000 A 
ENDBRANCH  39  40
ENDBRANCH  25  39
ENDBRANCH  24  25
ENDBRANCH   2  24
TORSDOF 10
ENDMDL
MODEL 9
REMARK VINA RESULT:    -5.832      4.612     10.123
REMARK INTER + INTRA:         -12.155
REMARK INTER:                  -8.006
REMARK INTRA:                  -4.149
REMARK UNBOUND:                -2.913
REMARK  10 active torsions:
REMARK  status: ('A' for Active; 'I' for Inactive)
REMARK    1  A    between atoms: N_5  and  C_13 
REMARK    2  A    between atoms: N_6  and  C_21 
REMARK    3  A    between atoms: N_7  and  C_18 
REMARK       I    between atoms: N_7  and  C_24 
REMARK    4  A    between atoms: C_13  and  C_15 
REMARK    5  A    between atoms: C_15  and  C_16 
REMARK    6  A    between atoms: C_16  and  C_17 
REMARK    7  A    between atoms: C_17  and  C_24 
REMARK    8  A    between atoms: C_17  and  C_25 
REMARK    9  A    between atoms: C_21  and  C_28 
REMARK   10  A    between atoms: C_25  and  C_30 
ROOT
HETATM    1  O   MK1     0      20.076   9.275 -19.577  0.00  0.00    -0.221 OA
HETATM    2  C   MK1     0      21.184   9.540 -18.541  0.00  0.00     0.178 C 
ENDROOT
BRANCH   2   3
HETATM    3  C   MK1     0      21.027   9.024 -17.098  0.00  0.00     0.135 C 
BRANCH   3   4
HETATM    4  N   MK1     0      21.368   7.560 -16.764  0.00  0.00    -0.339 N 
HETATM    5  C   MK1     0      21.604   7.139 -15.301  0.00  0.00     0.123 A 
HETATM    6  C   MK1     0      21.944   5.675 -14.966  0.00  0.00     0.108 A 
HETATM    7  C   MK1     0      21.499   8.182 -14.173  0.00  0.00     0.227 A 
HETATM    8  N   MK1     0      22.049   4.631 -16.095  0.00  0.00    -0.339 N 
HETATM    9  C   MK1     0      22.000   5.938 -13.871  0.00  0.00    -0.089 A 
HETATM   10  C   MK1     0      21.813   5.053 -17.557  0.00  0.00     0.126 A 
HETATM   11  C   MK1     0      21.473   6.516 -17.891  0.00  0.00     0.126 A 
HETATM   12  C   MK1     0      22.075   6.297 -12.376  0.00  0.00     0.134 A 
HETATM   13  N   MK1     0      21.735   7.762 -12.710  0.00  0.00    -0.237 NA
HETATM   14  C   MK1     0      22.151   6.657 -10.880  0.00  0.00     0.037 C 
HETATM   15  C   MK1     0      22.416   4.833 -12.041  0.00  0.00     0.037 C 
HETATM   16  O   MK1     0      21.158   9.646 -14.508  0.00  0.00    -0.168 OA
BRANCH   8  17
HETATM   17  C   MK1     0      22.389   3.167 -15.759  0.00  0.00     0.104 C 
BRANCH  17  18
HETATM   18  C   MK1     0      23.652   2.838 -14.941  0.00  0.00     0.046 A 
HETATM   19  C   MK1     0      24.965   3.597 -15.213  0.00  0.00     0.006 A 
HETATM   20  C   MK1     0      26.227   3.269 -14.395  0.00  0.00     0.026 A 
HETATM   21  C   MK1     0      26.178   2.181 -13.305  0.00  0.00     0.120 A 
HETATM   22  N   MK1     0      24.865   1.422 -13.034  0.00  0.00    -0.295 NA
HETATM   23  C   MK1     0      23.603   1.751 -13.852  0.00  0.00     0.122 A 
ENDBRANCH  17  18
ENDBRANCH   8  17
ENDBRANCH   3   4
ENDBRANCH   2   3
BRANCH   2  24
HETATM   24  C   MK1     0      22.447  10.321 -18.946  0.00  0.00     0.061 C 
BRANCH  24  25
HETATM   25  C   MK1     0      23.319  10.989 -17.866  0.00  0.00     0.002 C 
BRANCH  25  26
HETATM   26  C   MK1     0      24.469  10.202 -17.209  0.00  0.00     0.205 C 
HETATM   27  O   MK1     0      25.580  10.953 -16.452  0.00  0.00    -0.170 OA
HETATM   28  N   MK1     0      24.509   8.666 -17.311  0.00  0.00    -0.219 NA
BRANCH  28  29
HETATM   29  C   MK1     0      25.658   7.881 -16.654  0.00  0.00     0.100 A 
HETATM   30  C   MK1     0      26.794   7.165 -17.391  0.00  0.00     0.130 A 
HETATM   31  O   MK1     0      26.985   7.106 -18.918  0.00  0.00    -0.193 OA
HETATM   32  C   MK1     0      27.707   6.519 -16.345  0.00  0.00     0.077 A 
HETATM   33  C   MK1     0      27.138   6.833 -14.959  0.00  0.00    -0.040 A 
HETATM   34  C   MK1     0      25.866   7.679 -15.151  0.00  0.00    -0.010 A 
HETATM   35  C   MK1     0      27.609   6.461 -13.541  0.00  0.00     0.022 A 
HETATM   36  C   MK1     0      25.064   8.153 -13.924  0.00  0.00     0.027 A 
HETATM   37  C   MK1     0      25.535   7.781 -12.506  0.00  0.00     0.005 A 
HETATM   38  C   MK1     0      26.808   6.935 -12.314  0.00  0.00     0.005 A 
ENDBRANCH  28  29
ENDBRANCH  25  26
BRANCH  25  39
HETATM   39  C   MK1     0      23.041  12.443 -17.442  0.00  0.00     0.026 C 
BRANCH  39  40
HETATM   40  C   MK1     0      21.611  13.008 -17.518  0.00  0.00     0.004 A 
HETATM   41  C   MK1     0      20.599  12.697 -16.400  0.00  0.00     0.000 A 
HETATM   42  C   MK1     0      19.168  13.262 -16.476  0.00  0.00     0.000 A 
HETATM   43  C   MK1     0      18.749  14.137 -17.671  0.00  0.00     0.000 A 
HETATM   44  C   MK1     0      19.761  14.449 -18.791  0.00  0.00     0.000 A 
HETATM   45  C   MK1     0      21.191  13.884 -18.714  0.00  0.00     0.000 A 
ENDBRANCH  39  40
ENDBRANCH  25  39
ENDBRANCH  24  25
ENDBRANCH   2  24
TORSDOF 10
ENDMDL
