MODEL 1
REMARK VINA RESULT:    -7.123      0.000      0.000
REMARK INTER + INTRA:         -13.245
REMARK INTER:                 -11.287
REMARK INTRA:                  -1.958
REMARK UNBOUND:                -1.958
REMARK  10 active torsions:
REMARK  status: ('A' for Active; 'I' for Inactive)
REMARK    1  A    between atoms: N_5  and  C_13 
REMARK    2  A    between atoms: N_6  and  C_21 
REMARK    3  A    between atoms: N_7  and  C_18 
REMARK       I    between atoms: N_7  and  C_24 
REMARK    4  A    between atoms: C_13  and  C_15 
REMARK    5  A    between atoms: C_15  and  C_16 
REMARK    6  A    between atoms: C_16  and  C_17 
REMARK    7  A    between atoms: C_17  and  C_24 
REMARK    8  A    between atoms: C_17  and  C_25 
REMARK    9  A    between atoms: C_21  and  C_28 
REMARK   10  A    between atoms: C_25  and  C_30 
ROOT
HETATM    1  O   MK1     0      21.354  15.599   4.562  0.00  0.00    -0.221 OA
HETATM    2  C   MK1     0      21.982  14.994   5.832  0.00  0.00     0.178 C 
ENDROOT
BRANCH   2   3
HETATM    3  C   MK1     0      23.506  14.787   5.913  0.00  0.00     0.135 C 
BRANCH   3   4
HETATM    4  N   MK1     0      24.396  15.142   4.708  0.00  0.00    -0.339 N 
HETATM    5  C   MK1     0      25.413  16.293   4.815  0.00  0.00     0.123 A 
HETATM    6  C   MK1     0      26.304  16.649   3.610  0.00  0.00     0.108 A 
HETATM    7  C   MK1     0      25.539  17.090   6.127  0.00  0.00     0.227 A 
HETATM    8  N   MK1     0      26.178  15.852   2.298  0.00  0.00    -0.339 N 
HETATM    9  C   MK1     0      26.787  17.472   4.210  0.00  0.00    -0.089 A 
HETATM   10  C   MK1     0      25.161  14.700   2.192  0.00  0.00     0.126 A 
HETATM   11  C   MK1     0      24.270  14.345   3.396  0.00  0.00     0.126 A 
HETATM   12  C   MK1     0      27.446  18.597   5.028  0.00  0.00     0.134 A 
HETATM   13  N   MK1     0      26.556  18.242   6.234  0.00  0.00    -0.237 NA
HETATM   14  C   MK1     0      28.107  19.722   5.848  0.00  0.00     0.037 C 
HETATM   15  C   MK1     0      28.337  18.952   3.824  0.00  0.00     0.037 C 
HETATM   16  O   MK1     0      24.648  16.735   7.332  0.00  0.00    -0.168 OA
BRANCH   8  17
HETATM   17  C   MK1     0      27.069  16.207   1.093  0.00  0.00     0.104 C 
BRANCH  17  18
HETATM   18  C   MK1     0      27.233  17.677   0.664  0.00  0.00     0.046 A 
HETATM   19  C   MK1     0      28.624  18.217   0.281  0.00  0.00     0.006 A 
HETATM   20  C   MK1     0      28.789  19.686  -0.148  0.00  0.00     0.026 A 
HETATM   21  C   MK1     0      27.563  20.617  -0.194  0.00  0.00     0.120 A 
HETATM   22  N   MK1     0      26.172  20.078   0.189  0.00  0.00    -0.295 NA
HETATM   23  C   MK1     0      26.008  18.608   0.618  0.00  0.00     0.122 A 
ENDBRANCH  17  18
ENDBRANCH   8  17
ENDBRANCH   3   4
ENDBRANCH   2   3
BRANCH   2  24
HETATM   24  C   MK1     0      21.087  14.598   7.020  0.00  0.00     0.061 C 
BRANCH  24  25
HETATM   25  C   MK1     0      20.113  15.625   7.628  0.00  0.00     0.002 C 
BRANCH  25  26
HETATM   26  C   MK1     0      19.104  16.357   6.724  0.00  0.00     0.205 C 
HETATM   27  O   MK1     0      18.095  15.550   5.885  0.00  0.00    -0.170 OA
HETATM   28  N   MK1     0      19.102  17.896   6.659  0.00  0.00    -0.219 NA
BRANCH  28  29
HETATM   29  C   MK1     0      18.093  18.628   5.756  0.00  0.00     0.100 A 
HETATM   30  C   MK1     0      17.917  18.417   4.249  0.00  0.00     0.130 A 
HETATM   31  O   MK1     0      18.718  17.436   3.374  0.00  0.00    -0.193 OA
HETATM   32  C   MK1     0      16.805  19.351   3.766  0.00  0.00     0.077 A 
HETATM   33  C   MK1     0      16.290  20.143   4.971  0.00  0.00    -0.040 A 
HETATM   34  C   MK1     0      17.090  19.693   6.207  0.00  0.00    -0.010 A 
HETATM   35  C   MK1     0      15.195  21.217   5.111  0.00  0.00     0.022 A 
HETATM   36  C   MK1     0      16.796  20.318   7.584  0.00  0.00     0.027 A 
HETATM   37  C   MK1     0      15.701  21.392   7.724  0.00  0.00     0.005 A 
HETATM   38  C   MK1     0      14.901  21.842   6.488  0.00  0.00     0.005 A 
ENDBRANCH  28  29
ENDBRANCH  25  26
BRANCH  25  39
HETATM   39  C   MK1     0      20.149  15.920   9.139  0.00  0.00     0.026 C 
BRANCH  39  40
HETATM   40  C   MK1     0      18.851  16.286   9.882  0.00  0.00     0.004 A 
HETATM   41  C   MK1     0      17.900  15.176  10.365  0.00  0.00     0.000 A 
HETATM   42  C   MK1     0      16.602  15.542  11.109  0.00  0.00     0.000 A 
HETATM   43  C   MK1     0      16.255  17.020  11.370  0.00  0.00     0.000 A 
HETATM   44  C   MK1     0      17.207  18.131  10.887  0.00  0.00     0.000 A 
HETATM   45  C   MK1     0      18.504  17.764  10.144  0.00  0.00     0.000 A 
ENDBRANCH  39  40
ENDBRANCH  25  39
ENDBRANCH  24  25
ENDBRANCH   2  24
TORSDOF 10
ENDMDL
MODEL 2
REMARK VINA RESULT:    -6.921      7.431     11.355
REMARK INTER + INTRA:         -12.925
REMARK INTER:                  -8.646
REMARK INTRA:                  -4.279
REMARK UNBOUND:                -1.958
REMARK  10 active torsions:
REMARK  status: ('A' for Active; 'I' for Inactive)
REMARK    1  A    between atoms: N_5  and  C_13 
REMARK    2  A    between atoms: N_6  and  C_21 
REMARK    3  A    between atoms: N_7  and  C_18 
REMARK       I    between atoms: N_7  and  C_24 
REMARK    4  A    between atoms: C_13  and  C_15 
REMARK    5  A    between atoms: C_15  and  C_16 
REMARK    6  A    between atoms: C_16  and  C_17 
REMARK    7  A    between atoms: C_17  and  C_24 
REMARK    8  A    between atoms: C_17  and  C_25 
REMARK    9  A    between atoms: C_21  and  C_28 
REMARK   10  A    between atoms: C_25  and  C_30 
ROOT
HETATM    1  O   MK1     0      25.489  13.801   2.767  0.00  0.00    -0.221 OA
HETATM    2  C   MK1     0      25.403  14.893   1.686  0.00  0.00     0.178 C 
ENDROOT
BRANCH   2   3
HETATM    3  C   MK1     0      25.551  14.519   0.199  0.00  0.00     0.135 C 
BRANCH   3   4
HETATM    4  N   MK1     0      26.917  14.657  -0.497  0.00  0.00    -0.339 N 
HETATM    5  C   MK1     0      26.987  15.048  -1.985  0.00  0.00     0.123 A 
HETATM    6  C   MK1     0      28.354  15.187  -2.681  0.00  0.00     0.108 A 
HETATM    7  C   MK1     0      25.691  15.301  -2.777  0.00  0.00     0.227 A 
HETATM    8  N   MK1     0      29.651  14.934  -1.889  0.00  0.00    -0.339 N 
HETATM    9  C   MK1     0      27.835  15.460  -3.645  0.00  0.00    -0.089 A 
HETATM   10  C   MK1     0      29.580  14.543  -0.402  0.00  0.00     0.126 A 
HETATM   11  C   MK1     0      28.214  14.404   0.294  0.00  0.00     0.126 A 
HETATM   12  C   MK1     0      27.127  15.831  -4.960  0.00  0.00     0.134 A 
HETATM   13  N   MK1     0      25.760  15.693  -4.265  0.00  0.00    -0.237 NA
HETATM   14  C   MK1     0      26.419  16.203  -6.277  0.00  0.00     0.037 C 
HETATM   15  C   MK1     0      28.494  15.970  -5.657  0.00  0.00     0.037 C 
HETATM   16  O   MK1     0      24.324  15.163  -2.080  0.00  0.00    -0.168 OA
BRANCH   8  17
HETATM   17  C   MK1     0      31.017  15.073  -2.586  0.00  0.00     0.104 C 
BRANCH  17  18
HETATM   18  C   MK1     0      31.567  16.470  -2.931  0.00  0.00     0.046 A 
HETATM   19  C   MK1     0      31.954  17.445  -1.804  0.00  0.00     0.006 A 
HETATM   20  C   MK1     0      32.504  18.841  -2.148  0.00  0.00     0.026 A 
HETATM   21  C   MK1     0      32.667  19.263  -3.621  0.00  0.00     0.120 A 
HETATM   22  N   MK1     0      32.280  18.288  -4.748  0.00  0.00    -0.295 NA
HETATM   23  C   MK1     0      31.730  16.891  -4.403  0.00  0.00     0.122 A 
ENDBRANCH  17  18
ENDBRANCH   8  17
ENDBRANCH   3   4
ENDBRANCH   2   3
BRANCH   2  24
HETATM   24  C   MK1     0      25.169  16.360   2.089  0.00  0.00     0.061 C 
BRANCH  24  25
HETATM   25  C   MK1     0      26.114  17.461   1.574  0.00  0.00     0.002 C 
BRANCH  25  26
HETATM   26  C   MK1     0      27.355  17.858   2.397  0.00  0.00     0.205 C 
HETATM   27  O   MK1     0      27.184  18.593   3.740  0.00  0.00    -0.170 OA
HETATM   28  N   MK1     0      28.765  17.521   1.877  0.00  0.00    -0.219 NA
BRANCH  28  29
HETATM   29  C   MK1     0      30.004  17.917   2.700  0.00  0.00     0.100 A 
HETATM   30  C   MK1     0      30.397  17.347   4.066  0.00  0.00     0.130 A 
HETATM   31  O   MK1     0      29.621  16.277   4.856  0.00  0.00    -0.193 OA
HETATM   32  C   MK1     0      31.695  18.027   4.509  0.00  0.00     0.077 A 
HETATM   33  C   MK1     0      32.109  19.019   3.419  0.00  0.00    -0.040 A 
HETATM   34  C   MK1     0      31.058  18.951   2.295  0.00  0.00    -0.010 A 
HETATM   35  C   MK1     0      33.306  19.980   3.297  0.00  0.00     0.022 A 
HETATM   36  C   MK1     0      31.205  19.844   1.049  0.00  0.00     0.027 A 
HETATM   37  C   MK1     0      32.402  20.805   0.927  0.00  0.00     0.005 A 
HETATM   38  C   MK1     0      33.453  20.873   2.051  0.00  0.00     0.005 A 
ENDBRANCH  28  29
ENDBRANCH  25  26
BRANCH  25  39
HETATM   39  C   MK1     0      25.821  18.166   0.237  0.00  0.00     0.026 C 
BRANCH  39  40
HETATM   40  C   MK1     0      26.885  19.077  -0.403  0.00  0.00     0.004 A 
HETATM   41  C   MK1     0      27.033  20.536   0.067  0.00  0.00     0.000 A 
HETATM   42  C   MK1     0      28.097  21.447  -0.573  0.00  0.00     0.000 A 
HETATM   43  C   MK1     0      29.013  20.900  -1.684  0.00  0.00     0.000 A 
HETATM   44  C   MK1     0      28.864  19.440  -2.154  0.00  0.00     0.000 A 
HETATM   45  C   MK1     0      27.800  18.530  -1.514  0.00  0.00     0.000 A 
ENDBRANCH  39  40
ENDBRANCH  25  39
ENDBRANCH  24  25
ENDBRANCH   2  24
TORSDOF 10
ENDMDL
MODEL 3
REMARK VINA RESULT:    -6.903      8.130     12.530
REMARK INTER + INTRA:         -12.896
REMARK INTER:                  -8.397
REMARK INTRA:                  -4.500
REMARK UNBOUND:                -1.958
REMARK  10 active torsions:
REMARK  status: ('A' for Active; 'I' for Inactive)
REMARK    1  A    between atoms: N_5  and  C_13 
REMARK    2  A    between atoms: N_6  and  C_21 
REMARK    3  A    between atoms: N_7  and  C_18 
REMARK       I    between atoms: N_7  and  C_24 
REMARK    4  A    between atoms: C_13  and  C_15 
REMARK    5  A    between atoms: C_15  and  C_16 
REMARK    6  A    between atoms: C_16  and  C_17 
REMARK    7  A    between atoms: C_17  and  C_24 
REMARK    8  A    between atoms: C_17  and  C_25 
REMARK    9  A    between atoms: C_21  and  C_28 
REMARK   10  A    between atoms: C_25  and  C_30 
ROOT
HETATM    1  O   MK1     0      26.329  11.641   1.063  0.00  0.00    -0.221 OA
HETATM    2  C   MK1     0      26.497  11.658  -0.468  0.00  0.00     0.178 C 
ENDROOT
BRANCH   2   3
HETATM    3  C   MK1     0      27.572  10.779  -1.134  0.00  0.00     0.135 C 
BRANCH   3   4
HETATM    4  N   MK1     0      27.671  10.716  -2.669  0.00  0.00    -0.339 N 
HETATM    5  C   MK1     0      28.839  11.409  -3.395  0.00  0.00     0.123 A 
HETATM    6  C   MK1     0      28.938  11.346  -4.931  0.00  0.00     0.108 A 
HETATM    7  C   MK1     0      29.909  12.165  -2.586  0.00  0.00     0.227 A 
HETATM    8  N   MK1     0      27.868  10.590  -5.741  0.00  0.00    -0.339 N 
HETATM    9  C   MK1     0      29.884  11.959  -4.895  0.00  0.00    -0.089 A 
HETATM   10  C   MK1     0      26.700   9.897  -5.015  0.00  0.00     0.126 A 
HETATM   11  C   MK1     0      26.601   9.961  -3.480  0.00  0.00     0.126 A 
HETATM   12  C   MK1     0      31.176  12.795  -4.847  0.00  0.00     0.134 A 
HETATM   13  N   MK1     0      31.078  12.858  -3.311  0.00  0.00    -0.237 NA
HETATM   14  C   MK1     0      32.469  13.632  -4.798  0.00  0.00     0.037 C 
HETATM   15  C   MK1     0      31.275  12.732  -6.382  0.00  0.00     0.037 C 
HETATM   16  O   MK1     0      29.810  12.228  -1.050  0.00  0.00    -0.168 OA
BRANCH   8  17
HETATM   17  C   MK1     0      27.967  10.527  -7.277  0.00  0.00     0.104 C 
BRANCH  17  18
HETATM   18  C   MK1     0      27.986  11.828  -8.101  0.00  0.00     0.046 A 
HETATM   19  C   MK1     0      27.421  13.129  -7.500  0.00  0.00     0.006 A 
HETATM   20  C   MK1     0      27.438  14.430  -8.322  0.00  0.00     0.026 A 
HETATM   21  C   MK1     0      28.022  14.431  -9.749  0.00  0.00     0.120 A 
HETATM   22  N   MK1     0      28.587  13.130 -10.350  0.00  0.00    -0.295 NA
HETATM   23  C   MK1     0      28.569  11.829  -9.526  0.00  0.00     0.122 A 
ENDBRANCH  17  18
ENDBRANCH   8  17
ENDBRANCH   3   4
ENDBRANCH   2   3
BRANCH   2  24
HETATM   24  C   MK1     0      25.590  12.552  -1.332  0.00  0.00     0.061 C 
BRANCH  24  25
HETATM   25  C   MK1     0      26.185  13.762  -2.077  0.00  0.00     0.002 C 
BRANCH  25  26
HETATM   26  C   MK1     0      26.674  14.989  -1.286  0.00  0.00     0.205 C 
HETATM   27  O   MK1     0      28.083  14.991  -0.663  0.00  0.00    -0.170 OA
HETATM   28  N   MK1     0      25.756  16.214  -1.118  0.00  0.00    -0.219 NA
BRANCH  28  29
HETATM   29  C   MK1     0      26.246  17.440  -0.327  0.00  0.00     0.100 A 
HETATM   30  C   MK1     0      25.806  17.833   1.087  0.00  0.00     0.130 A 
HETATM   31  O   MK1     0      24.796  17.070   1.964  0.00  0.00    -0.193 OA
HETATM   32  C   MK1     0      26.544  19.117   1.475  0.00  0.00     0.077 A 
HETATM   33  C   MK1     0      27.443  19.522   0.304  0.00  0.00    -0.040 A 
HETATM   34  C   MK1     0      27.257  18.480  -0.815  0.00  0.00    -0.010 A 
HETATM   35  C   MK1     0      28.410  20.704   0.103  0.00  0.00     0.022 A 
HETATM   36  C   MK1     0      28.039  18.621  -2.135  0.00  0.00     0.027 A 
HETATM   37  C   MK1     0      29.006  19.803  -2.336  0.00  0.00     0.005 A 
HETATM   38  C   MK1     0      29.191  20.844  -1.216  0.00  0.00     0.005 A 
ENDBRANCH  28  29
ENDBRANCH  25  26
BRANCH  25  39
HETATM   39  C   MK1     0      26.291  13.745  -3.614  0.00  0.00     0.026 C 
BRANCH  39  40
HETATM   40  C   MK1     0      26.877  14.959  -4.359  0.00  0.00     0.004 A 
HETATM   41  C   MK1     0      25.942  15.935  -5.095  0.00  0.00     0.000 A 
HETATM   42  C   MK1     0      26.528  17.149  -5.840  0.00  0.00     0.000 A 
HETATM   43  C   MK1     0      28.049  17.387  -5.848  0.00  0.00     0.000 A 
HETATM   44  C   MK1     0      28.985  16.410  -5.110  0.00  0.00     0.000 A 
HETATM   45  C   MK1     0      28.399  15.197  -4.366  0.00  0.00     0.000 A 
ENDBRANCH  39  40
ENDBRANCH  25  39
ENDBRANCH  24  25
ENDBRANCH   2  24
TORSDOF 10
ENDMDL
MODEL 4
REMARK VINA RESULT:    -6.726      7.952     10.762
REMARK INTER + INTRA:         -12.615
REMARK INTER:                  -8.768
REMARK INTRA:                  -3.847
REMARK UNBOUND:                -1.958
REMARK  10 active torsions:
REMARK  status: ('A' for Active; 'I' for Inactive)
REMARK    1  A    between atoms: N_5  and  C_13 
REMARK    2  A    between atoms: N_6  and  C_21 
REMARK    3  A    between atoms: N_7  and  C_18 
REMARK       I    between atoms: N_7  and  C_24 
REMARK    4  A    between atoms: C_13  and  C_15 
REMARK    5  A    between atoms: C_15  and  C_16 
REMARK    6  A    between atoms: C_16  and  C_17 
REMARK    7  A    between atoms: C_17  and  C_24 
REMARK    8  A    between atoms: C_17  and  C_25 
REMARK    9  A    between atoms: C_21  and  C_28 
REMARK   10  A    between atoms: C_25  and  C_30 
ROOT
HETATM    1  O   MK1     0      28.356  15.615   3.607  0.00  0.00    -0.221 OA
HETATM    2  C   MK1     0      28.378  17.026   2.990  0.00  0.00     0.178 C 
ENDROOT
BRANCH   2   3
HETATM    3  C   MK1     0      29.719  17.672   2.595  0.00  0.00     0.135 C 
BRANCH   3   4
HETATM    4  N   MK1     0      30.278  17.479   1.173  0.00  0.00    -0.339 N 
HETATM    5  C   MK1     0      31.412  18.387   0.661  0.00  0.00     0.123 A 
HETATM    6  C   MK1     0      31.971  18.195  -0.761  0.00  0.00     0.108 A 
HETATM    7  C   MK1     0      31.987  19.488   1.572  0.00  0.00     0.227 A 
HETATM    8  N   MK1     0      31.395  17.093  -1.671  0.00  0.00    -0.339 N 
HETATM    9  C   MK1     0      32.693  19.044  -0.592  0.00  0.00    -0.089 A 
HETATM   10  C   MK1     0      30.261  16.186  -1.159  0.00  0.00     0.126 A 
HETATM   11  C   MK1     0      29.703  16.379   0.262  0.00  0.00     0.126 A 
HETATM   12  C   MK1     0      33.679  20.203  -0.362  0.00  0.00     0.134 A 
HETATM   13  N   MK1     0      33.121  20.396   1.061  0.00  0.00    -0.237 NA
HETATM   14  C   MK1     0      34.667  21.363  -0.132  0.00  0.00     0.037 C 
HETATM   15  C   MK1     0      34.239  20.010  -1.784  0.00  0.00     0.037 C 
HETATM   16  O   MK1     0      31.428  19.681   2.994  0.00  0.00    -0.168 OA
BRANCH   8  17
HETATM   17  C   MK1     0      31.954  16.901  -3.093  0.00  0.00     0.104 C 
BRANCH  17  18
HETATM   18  C   MK1     0      31.369  17.709  -4.267  0.00  0.00     0.046 A 
HETATM   19  C   MK1     0      31.900  19.122  -4.569  0.00  0.00     0.006 A 
HETATM   20  C   MK1     0      31.316  19.931  -5.742  0.00  0.00     0.026 A 
HETATM   21  C   MK1     0      30.199  19.326  -6.613  0.00  0.00     0.120 A 
HETATM   22  N   MK1     0      29.667  17.912  -6.311  0.00  0.00    -0.295 NA
HETATM   23  C   MK1     0      30.253  17.104  -5.137  0.00  0.00     0.122 A 
ENDBRANCH  17  18
ENDBRANCH   8  17
ENDBRANCH   3   4
ENDBRANCH   2   3
BRANCH   2  24
HETATM   24  C   MK1     0      27.061  17.789   2.766  0.00  0.00     0.061 C 
BRANCH  24  25
HETATM   25  C   MK1     0      26.297  17.636   1.438  0.00  0.00     0.002 C 
BRANCH  25  26
HETATM   26  C   MK1     0      25.758  16.256   1.014  0.00  0.00     0.205 C 
HETATM   27  O   MK1     0      25.014  15.375   2.035  0.00  0.00    -0.170 OA
HETATM   28  N   MK1     0      25.962  15.759  -0.429  0.00  0.00    -0.219 NA
BRANCH  28  29
HETATM   29  C   MK1     0      25.424  14.380  -0.851  0.00  0.00     0.100 A 
HETATM   30  C   MK1     0      24.328  14.122  -1.890  0.00  0.00     0.130 A 
HETATM   31  O   MK1     0      23.574  15.198  -2.695  0.00  0.00    -0.193 OA
HETATM   32  C   MK1     0      24.114  12.610  -1.990  0.00  0.00     0.077 A 
HETATM   33  C   MK1     0      25.075  11.928  -1.014  0.00  0.00    -0.040 A 
HETATM   34  C   MK1     0      25.889  13.027  -0.306  0.00  0.00    -0.010 A 
HETATM   35  C   MK1     0      25.322  10.446  -0.671  0.00  0.00     0.022 A 
HETATM   36  C   MK1     0      26.949  12.646   0.744  0.00  0.00     0.027 A 
HETATM   37  C   MK1     0      27.195  11.165   1.087  0.00  0.00     0.005 A 
HETATM   38  C   MK1     0      26.382  10.065   0.380  0.00  0.00     0.005 A 
ENDBRANCH  28  29
ENDBRANCH  25  26
BRANCH  25  39
HETATM   39  C   MK1     0      26.071  18.861   0.532  0.00  0.00     0.026 C 
BRANCH  39  40
HETATM   40  C   MK1     0      27.226  19.404  -0.331  0.00  0.00     0.004 A 
HETATM   41  C   MK1     0      27.558  18.739  -1.679  0.00  0.00     0.000 A 
HETATM   42  C   MK1     0      28.713  19.282  -2.542  0.00  0.00     0.000 A 
HETATM   43  C   MK1     0      29.536  20.490  -2.055  0.00  0.00     0.000 A 
HETATM   44  C   MK1     0      29.203  21.155  -0.706  0.00  0.00     0.000 A 
HETATM   45  C   MK1     0      28.049  20.612   0.156  0.00  0.00     0.000 A 
ENDBRANCH  39  40
ENDBRANCH  25  39
ENDBRANCH  24  25
ENDBRANCH   2  24
TORSDOF 10
ENDMDL
MODEL 5
REMARK VINA RESULT:    -6.723      7.295     11.169
REMARK INTER + INTRA:         -12.611
REMARK INTER:                  -8.328
REMARK INTRA:                  -4.283
REMARK UNBOUND:                -1.958
REMARK  10 active torsions:
REMARK  status: ('A' for Active; 'I' for Inactive)
REMARK    1  A    between atoms: N_5  and  C_13 
REMARK    2  A    between atoms: N_6  and  C_21 
REMARK    3  A    between atoms: N_7  and  C_18 
REMARK       I    between atoms: N_7  and  C_24 
REMARK    4  A    between atoms: C_13  and  C_15 
REMARK    5  A    between atoms: C_15  and  C_16 
REMARK    6  A    between atoms: C_16  and  C_17 
REMARK    7  A    between atoms: C_17  and  C_24 
REMARK    8  A    between atoms: C_17  and  C_25 
REMARK    9  A    between atoms: C_21  and  C_28 
REMARK   10  A    between atoms: C_25  and  C_30 
ROOT
HETATM    1  O   MK1     0      30.388  10.837  -0.824  0.00  0.00    -0.221 OA
HETATM    2  C   MK1     0      29.635  12.100  -1.280  0.00  0.00     0.178 C 
ENDROOT
BRANCH   2   3
HETATM    3  C   MK1     0      28.806  12.911  -0.267  0.00  0.00     0.135 C 
BRANCH   3   4
HETATM    4  N   MK1     0      29.482  14.005   0.580  0.00  0.00    -0.339 N 
HETATM    5  C   MK1     0      28.625  15.073   1.285  0.00  0.00     0.123 A 
HETATM    6  C   MK1     0      29.300  16.168   2.132  0.00  0.00     0.108 A 
HETATM    7  C   MK1     0      27.091  15.047   1.142  0.00  0.00     0.227 A 
HETATM    8  N   MK1     0      30.833  16.195   2.274  0.00  0.00    -0.339 N 
HETATM    9  C   MK1     0      28.289  16.608   2.369  0.00  0.00    -0.089 A 
HETATM   10  C   MK1     0      31.690  15.127   1.569  0.00  0.00     0.126 A 
HETATM   11  C   MK1     0      31.015  14.033   0.723  0.00  0.00     0.126 A 
HETATM   12  C   MK1     0      26.909  17.209   2.694  0.00  0.00     0.134 A 
HETATM   13  N   MK1     0      26.233  16.114   1.847  0.00  0.00    -0.237 NA
HETATM   14  C   MK1     0      25.528  17.810   3.018  0.00  0.00     0.037 C 
HETATM   15  C   MK1     0      27.585  18.304   3.541  0.00  0.00     0.037 C 
HETATM   16  O   MK1     0      26.416  13.952   0.295  0.00  0.00    -0.168 OA
BRANCH   8  17
HETATM   17  C   MK1     0      31.508  17.289   3.121  0.00  0.00     0.104 C 
BRANCH  17  18
HETATM   18  C   MK1     0      32.057  18.559   2.443  0.00  0.00     0.046 A 
HETATM   19  C   MK1     0      31.290  19.198   1.270  0.00  0.00     0.006 A 
HETATM   20  C   MK1     0      31.838  20.467   0.592  0.00  0.00     0.026 A 
HETATM   21  C   MK1     0      33.154  21.098   1.086  0.00  0.00     0.120 A 
HETATM   22  N   MK1     0      33.921  20.458   2.259  0.00  0.00    -0.295 NA
HETATM   23  C   MK1     0      33.372  19.189   2.937  0.00  0.00     0.122 A 
ENDBRANCH  17  18
ENDBRANCH   8  17
ENDBRANCH   3   4
ENDBRANCH   2   3
BRANCH   2  24
HETATM   24  C   MK1     0      29.711  12.554  -2.749  0.00  0.00     0.061 C 
BRANCH  24  25
HETATM   25  C   MK1     0      28.826  13.713  -3.245  0.00  0.00     0.002 C 
BRANCH  25  26
HETATM   26  C   MK1     0      29.255  15.171  -2.993  0.00  0.00     0.205 C 
HETATM   27  O   MK1     0      30.570  15.468  -2.249  0.00  0.00    -0.170 OA
HETATM   28  N   MK1     0      28.369  16.330  -3.485  0.00  0.00    -0.219 NA
BRANCH  28  29
HETATM   29  C   MK1     0      28.797  17.787  -3.233  0.00  0.00     0.100 A 
HETATM   30  C   MK1     0      29.783  18.594  -4.083  0.00  0.00     0.130 A 
HETATM   31  O   MK1     0      30.519  18.089  -5.338  0.00  0.00    -0.193 OA
HETATM   32  C   MK1     0      29.911  19.990  -3.467  0.00  0.00     0.077 A 
HETATM   33  C   MK1     0      29.004  20.051  -2.235  0.00  0.00    -0.040 A 
HETATM   34  C   MK1     0      28.313  18.682  -2.090  0.00  0.00    -0.010 A 
HETATM   35  C   MK1     0      28.713  21.172  -1.220  0.00  0.00     0.022 A 
HETATM   36  C   MK1     0      27.330  18.435  -0.930  0.00  0.00     0.027 A 
HETATM   37  C   MK1     0      27.038  19.557   0.085  0.00  0.00     0.005 A 
HETATM   38  C   MK1     0      27.730  20.925  -0.060  0.00  0.00     0.005 A 
ENDBRANCH  28  29
ENDBRANCH  25  26
BRANCH  25  39
HETATM   39  C   MK1     0      27.513  13.415  -3.992  0.00  0.00     0.026 C 
BRANCH  39  40
HETATM   40  C   MK1     0      26.172  13.450  -3.235  0.00  0.00     0.004 A 
HETATM   41  C   MK1     0      25.410  14.778  -3.079  0.00  0.00     0.000 A 
HETATM   42  C   MK1     0      24.069  14.813  -2.322  0.00  0.00     0.000 A 
HETATM   43  C   MK1     0      23.490  13.518  -1.722  0.00  0.00     0.000 A 
HETATM   44  C   MK1     0      24.252  12.188  -1.878  0.00  0.00     0.000 A 
HETATM   45  C   MK1     0      25.593  12.155  -2.635  0.00  0.00     0.000 A 
ENDBRANCH  39  40
ENDBRANCH  25  39
ENDBRANCH  24  25
ENDBRANCH   2  24
TORSDOF 10
ENDMDL
MODEL 6
REMARK VINA RESULT:    -6.640      6.646     10.272
REMARK INTER + INTRA:         -12.479
REMARK INTER:                  -8.496
REMARK INTRA:                  -3.983
REMARK UNBOUND:                -1.958
REMARK  10 active torsions:
REMARK  status: ('A' for Active; 'I' for Inactive)
REMARK    1  A    between atoms: N_5  and  C_13 
REMARK    2  A    between atoms: N_6  and  C_21 
REMARK    3  A    between atoms: N_7  and  C_18 
REMARK       I    between atoms: N_7  and  C_24 
REMARK    4  A    between atoms: C_13  and  C_15 
REMARK    5  A    between atoms: C_15  and  C_16 
REMARK    6  A    between atoms: C_16  and  C_17 
REMARK    7  A    between atoms: C_17  and  C_24 
REMARK    8  A    between atoms: C_17  and  C_25 
REMARK    9  A    between atoms: C_21  and  C_28 
REMARK   10  A    between atoms: C_25  and  C_30 
ROOT
HETATM    1  O   MK1     0      26.115  13.622   2.199  0.00  0.00    -0.221 OA
HETATM    2  C   MK1     0      26.041  14.182   0.766  0.00  0.00     0.178 C 
ENDROOT
BRANCH   2   3
HETATM    3  C   MK1     0      26.724  13.428  -0.391  0.00  0.00     0.135 C 
BRANCH   3   4
HETATM    4  N   MK1     0      27.094  14.177  -1.683  0.00  0.00    -0.339 N 
HETATM    5  C   MK1     0      28.526  14.709  -1.882  0.00  0.00     0.123 A 
HETATM    6  C   MK1     0      28.897  15.458  -3.176  0.00  0.00     0.108 A 
HETATM    7  C   MK1     0      29.587  14.491  -0.788  0.00  0.00     0.227 A 
HETATM    8  N   MK1     0      27.836  15.676  -4.271  0.00  0.00    -0.339 N 
HETATM    9  C   MK1     0      29.951  15.591  -2.797  0.00  0.00    -0.089 A 
HETATM   10  C   MK1     0      26.404  15.145  -4.072  0.00  0.00     0.126 A 
HETATM   11  C   MK1     0      26.034  14.396  -2.779  0.00  0.00     0.126 A 
HETATM   12  C   MK1     0      31.390  15.771  -2.279  0.00  0.00     0.134 A 
HETATM   13  N   MK1     0      31.019  15.022  -0.986  0.00  0.00    -0.237 NA
HETATM   14  C   MK1     0      32.830  15.952  -1.762  0.00  0.00     0.037 C 
HETATM   15  C   MK1     0      31.761  16.521  -3.573  0.00  0.00     0.037 C 
HETATM   16  O   MK1     0      29.216  13.741   0.506  0.00  0.00    -0.168 OA
BRANCH   8  17
HETATM   17  C   MK1     0      28.208  16.426  -5.564  0.00  0.00     0.104 C 
BRANCH  17  18
HETATM   18  C   MK1     0      28.868  17.815  -5.486  0.00  0.00     0.046 A 
HETATM   19  C   MK1     0      28.628  18.714  -4.259  0.00  0.00     0.006 A 
HETATM   20  C   MK1     0      29.288  20.102  -4.180  0.00  0.00     0.026 A 
HETATM   21  C   MK1     0      30.188  20.593  -5.330  0.00  0.00     0.120 A 
HETATM   22  N   MK1     0      30.428  19.694  -6.557  0.00  0.00    -0.295 NA
HETATM   23  C   MK1     0      29.768  18.305  -6.635  0.00  0.00     0.122 A 
ENDBRANCH  17  18
ENDBRANCH   8  17
ENDBRANCH   3   4
ENDBRANCH   2   3
BRANCH   2  24
HETATM   24  C   MK1     0      25.284  15.494   0.490  0.00  0.00     0.061 C 
BRANCH  24  25
HETATM   25  C   MK1     0      26.024  16.842   0.573  0.00  0.00     0.002 C 
BRANCH  25  26
HETATM   26  C   MK1     0      26.140  17.574   1.923  0.00  0.00     0.205 C 
HETATM   27  O   MK1     0      25.430  18.925   2.129  0.00  0.00    -0.170 OA
HETATM   28  N   MK1     0      26.967  16.956   3.067  0.00  0.00    -0.219 NA
BRANCH  28  29
HETATM   29  C   MK1     0      27.083  17.688   4.416  0.00  0.00     0.100 A 
HETATM   30  C   MK1     0      26.038  17.680   5.536  0.00  0.00     0.130 A 
HETATM   31  O   MK1     0      24.689  16.938   5.509  0.00  0.00    -0.193 OA
HETATM   32  C   MK1     0      26.569  18.539   6.687  0.00  0.00     0.077 A 
HETATM   33  C   MK1     0      27.943  19.080   6.283  0.00  0.00    -0.040 A 
HETATM   34  C   MK1     0      28.262  18.551   4.872  0.00  0.00    -0.010 A 
HETATM   35  C   MK1     0      28.952  19.986   7.012  0.00  0.00     0.022 A 
HETATM   36  C   MK1     0      29.590  18.930   4.190  0.00  0.00     0.027 A 
HETATM   37  C   MK1     0      30.599  19.837   4.919  0.00  0.00     0.005 A 
HETATM   38  C   MK1     0      30.280  20.365   6.330  0.00  0.00     0.005 A 
ENDBRANCH  28  29
ENDBRANCH  25  26
BRANCH  25  39
HETATM   39  C   MK1     0      26.648  17.458  -0.693  0.00  0.00     0.026 C 
BRANCH  39  40
HETATM   40  C   MK1     0      27.710  18.567  -0.566  0.00  0.00     0.004 A 
HETATM   41  C   MK1     0      27.297  20.046  -0.678  0.00  0.00     0.000 A 
HETATM   42  C   MK1     0      28.359  21.154  -0.551  0.00  0.00     0.000 A 
HETATM   43  C   MK1     0      29.834  20.783  -0.313  0.00  0.00     0.000 A 
HETATM   44  C   MK1     0      30.248  19.303  -0.201  0.00  0.00     0.000 A 
HETATM   45  C   MK1     0      29.186  18.196  -0.328  0.00  0.00     0.000 A 
ENDBRANCH  39  40
ENDBRANCH  25  39
ENDBRANCH  24  25
ENDBRANCH   2  24
TORSDOF 10
ENDMDL
MODEL 7
REMARK VINA RESULT:    -6.587     10.536     16.917
REMARK INTER + INTRA:         -12.395
REMARK INTER:                 -10.039
REMARK INTRA:                  -2.357
REMARK UNBOUND:                -1.958
REMARK  10 active torsions:
REMARK  status: ('A' for Active; 'I' for Inactive)
REMARK    1  A    between atoms: N_5  and  C_13 
REMARK    2  A    between atoms: N_6  and  C_21 
REMARK    3  A    between atoms: N_7  and  C_18 
REMARK       I    between atoms: N_7  and  C_24 
REMARK    4  A    between atoms: C_13  and  C_15 
REMARK    5  A    between atoms: C_15  and  C_16 
REMARK    6  A    between atoms: C_16  and  C_17 
REMARK    7  A    between atoms: C_17  and  C_24 
REMARK    8  A    between atoms: C_17  and  C_25 
REMARK    9  A    between atoms: C_21  and  C_28 
REMARK   10  A    between atoms: C_25  and  C_30 
ROOT
HETATM    1  O   MK1     0      32.580  19.721  -5.744  0.00  0.00    -0.221 OA
HETATM    2  C   MK1     0      31.364  20.526  -6.239  0.00  0.00     0.178 C 
ENDROOT
BRANCH   2   3
HETATM    3  C   MK1     0      31.464  21.350  -7.537  0.00  0.00     0.135 C 
BRANCH   3   4
HETATM    4  N   MK1     0      31.092  20.709  -8.886  0.00  0.00    -0.339 N 
HETATM    5  C   MK1     0      30.928  21.589 -10.138  0.00  0.00     0.123 A 
HETATM    6  C   MK1     0      30.556  20.948 -11.488  0.00  0.00     0.108 A 
HETATM    7  C   MK1     0      31.135  23.113 -10.041  0.00  0.00     0.227 A 
HETATM    8  N   MK1     0      30.348  19.425 -11.586  0.00  0.00    -0.339 N 
HETATM    9  C   MK1     0      30.574  21.965 -11.976  0.00  0.00    -0.089 A 
HETATM   10  C   MK1     0      30.513  18.544 -10.333  0.00  0.00     0.126 A 
HETATM   11  C   MK1     0      30.884  19.186  -8.984  0.00  0.00     0.126 A 
HETATM   12  C   MK1     0      30.599  23.352 -12.643  0.00  0.00     0.134 A 
HETATM   13  N   MK1     0      30.971  23.994 -11.293  0.00  0.00    -0.237 NA
HETATM   14  C   MK1     0      30.624  24.741 -13.310  0.00  0.00     0.037 C 
HETATM   15  C   MK1     0      30.227  22.711 -13.993  0.00  0.00     0.037 C 
HETATM   16  O   MK1     0      31.507  23.754  -8.691  0.00  0.00    -0.168 OA
BRANCH   8  17
HETATM   17  C   MK1     0      29.976  18.784 -12.936  0.00  0.00     0.104 C 
BRANCH  17  18
HETATM   18  C   MK1     0      30.366  17.323 -13.228  0.00  0.00     0.046 A 
HETATM   19  C   MK1     0      29.277  16.238 -13.314  0.00  0.00     0.006 A 
HETATM   20  C   MK1     0      29.666  14.777 -13.606  0.00  0.00     0.026 A 
HETATM   21  C   MK1     0      31.146  14.401 -13.812  0.00  0.00     0.120 A 
HETATM   22  N   MK1     0      32.235  15.486 -13.726  0.00  0.00    -0.295 NA
HETATM   23  C   MK1     0      31.845  16.947 -13.434  0.00  0.00     0.122 A 
ENDBRANCH  17  18
ENDBRANCH   8  17
ENDBRANCH   3   4
ENDBRANCH   2   3
BRANCH   2  24
HETATM   24  C   MK1     0      30.049  20.508  -5.438  0.00  0.00     0.061 C 
BRANCH  24  25
HETATM   25  C   MK1     0      29.689  19.283  -4.577  0.00  0.00     0.002 C 
BRANCH  25  26
HETATM   26  C   MK1     0      28.960  18.083  -5.211  0.00  0.00     0.205 C 
HETATM   27  O   MK1     0      27.445  18.157  -5.477  0.00  0.00    -0.170 OA
HETATM   28  N   MK1     0      29.745  16.810  -5.579  0.00  0.00    -0.219 NA
BRANCH  28  29
HETATM   29  C   MK1     0      29.016  15.612  -6.212  0.00  0.00     0.100 A 
HETATM   30  C   MK1     0      27.873  14.816  -5.575  0.00  0.00     0.130 A 
HETATM   31  O   MK1     0      27.253  15.075  -4.190  0.00  0.00    -0.193 OA
HETATM   32  C   MK1     0      27.454  13.718  -6.556  0.00  0.00     0.077 A 
HETATM   33  C   MK1     0      28.336  13.831  -7.802  0.00  0.00    -0.040 A 
HETATM   34  C   MK1     0      29.306  15.008  -7.588  0.00  0.00    -0.010 A 
HETATM   35  C   MK1     0      28.388  13.018  -9.109  0.00  0.00     0.022 A 
HETATM   36  C   MK1     0      30.328  15.371  -8.681  0.00  0.00     0.027 A 
HETATM   37  C   MK1     0      30.380  14.558  -9.989  0.00  0.00     0.005 A 
HETATM   38  C   MK1     0      29.410  13.382 -10.203  0.00  0.00     0.005 A 
ENDBRANCH  28  29
ENDBRANCH  25  26
BRANCH  25  39
HETATM   39  C   MK1     0      30.058  19.257  -3.082  0.00  0.00     0.026 C 
BRANCH  39  40
HETATM   40  C   MK1     0      28.976  19.522  -2.018  0.00  0.00     0.004 A 
HETATM   41  C   MK1     0      28.815  20.930  -1.418  0.00  0.00     0.000 A 
HETATM   42  C   MK1     0      27.733  21.195  -0.354  0.00  0.00     0.000 A 
HETATM   43  C   MK1     0      26.813  20.051   0.111  0.00  0.00     0.000 A 
HETATM   44  C   MK1     0      26.975  18.641  -0.489  0.00  0.00     0.000 A 
HETATM   45  C   MK1     0      28.056  18.377  -1.553  0.00  0.00     0.000 A 
ENDBRANCH  39  40
ENDBRANCH  25  39
ENDBRANCH  24  25
ENDBRANCH   2  24
TORSDOF 10
ENDMDL
MODEL 8
REMARK VINA RESULT:    -6.570      5.147     12.638
REMARK INTER + INTRA:         -12.368
REMARK INTER:                 -10.284
REMARK INTRA:                  -2.084
REMARK UNBOUND:                -1.958
REMARK  10 active torsions:
REMARK  status: ('A' for Active; 'I' for Inactive)
REMARK    1  A    between atoms: N_5  and  C_13 
REMARK    2  A    between atoms: N_6  and  C_21 
REMARK    3  A    between atoms: N_7  and  C_18 
REMARK       I    between atoms: N_7  and  C_24 
REMARK    4  A    between atoms: C_13  and  C_15 
REMARK    5  A    between atoms: C_15  and  C_16 
REMARK    6  A    between atoms: C_16  and  C_17 
REMARK    7  A    between atoms: C_17  and  C_24 
REMARK    8  A    between atoms: C_17  and  C_25 
REMARK    9  A    between atoms: C_21  and  C_28 
REMARK   10  A    between atoms: C_25  and  C_30 
ROOT
HETATM    1  O   MK1     0      28.382  19.311   3.199  0.00  0.00    -0.221 OA
HETATM    2  C   MK1     0      27.697  19.361   1.821  0.00  0.00     0.178 C 
ENDROOT
BRANCH   2   3
HETATM    3  C   MK1     0      26.252  18.851   1.660  0.00  0.00     0.135 C 
BRANCH   3   4
HETATM    4  N   MK1     0      25.799  17.579   2.398  0.00  0.00    -0.339 N 
HETATM    5  C   MK1     0      25.599  16.266   1.618  0.00  0.00     0.123 A 
HETATM    6  C   MK1     0      25.145  14.992   2.356  0.00  0.00     0.108 A 
HETATM    7  C   MK1     0      25.852  16.226   0.100  0.00  0.00     0.227 A 
HETATM    8  N   MK1     0      24.892  15.032   3.875  0.00  0.00    -0.339 N 
HETATM    9  C   MK1     0      25.168  14.421   1.385  0.00  0.00    -0.089 A 
HETATM   10  C   MK1     0      25.093  16.345   4.655  0.00  0.00     0.126 A 
HETATM   11  C   MK1     0      25.546  17.618   3.917  0.00  0.00     0.126 A 
HETATM   12  C   MK1     0      25.198  13.640   0.058  0.00  0.00     0.134 A 
HETATM   13  N   MK1     0      25.652  14.913  -0.681  0.00  0.00    -0.237 NA
HETATM   14  C   MK1     0      25.229  12.859  -1.270  0.00  0.00     0.037 C 
HETATM   15  C   MK1     0      24.745  12.367   0.796  0.00  0.00     0.037 C 
HETATM   16  O   MK1     0      26.305  17.500  -0.638  0.00  0.00    -0.168 OA
BRANCH   8  17
HETATM   17  C   MK1     0      24.439  13.759   4.613  0.00  0.00     0.104 C 
BRANCH  17  18
HETATM   18  C   MK1     0      22.944  13.526   4.900  0.00  0.00     0.046 A 
HETATM   19  C   MK1     0      21.926  14.654   4.647  0.00  0.00     0.006 A 
HETATM   20  C   MK1     0      20.432  14.423   4.933  0.00  0.00     0.026 A 
HETATM   21  C   MK1     0      19.953  13.061   5.473  0.00  0.00     0.120 A 
HETATM   22  N   MK1     0      20.970  11.933   5.726  0.00  0.00    -0.295 NA
HETATM   23  C   MK1     0      22.465  12.166   5.439  0.00  0.00     0.122 A 
ENDBRANCH  17  18
ENDBRANCH   8  17
ENDBRANCH   3   4
ENDBRANCH   2   3
BRANCH   2  24
HETATM   24  C   MK1     0      28.455  19.922   0.604  0.00  0.00     0.061 C 
BRANCH  24  25
HETATM   25  C   MK1     0      29.660  19.155   0.028  0.00  0.00     0.002 C 
BRANCH  25  26
HETATM   26  C   MK1     0      29.627  18.649  -1.427  0.00  0.00     0.205 C 
HETATM   27  O   MK1     0      30.516  17.465  -1.849  0.00  0.00    -0.170 OA
HETATM   28  N   MK1     0      28.706  19.327  -2.458  0.00  0.00    -0.219 NA
BRANCH  28  29
HETATM   29  C   MK1     0      28.674  18.821  -3.911  0.00  0.00     0.100 A 
HETATM   30  C   MK1     0      29.317  19.510  -5.118  0.00  0.00     0.130 A 
HETATM   31  O   MK1     0      30.110  20.830  -5.089  0.00  0.00    -0.193 OA
HETATM   32  C   MK1     0      29.036  18.657  -6.358  0.00  0.00     0.077 A 
HETATM   33  C   MK1     0      28.217  17.439  -5.923  0.00  0.00    -0.040 A 
HETATM   34  C   MK1     0      27.993  17.541  -4.403  0.00  0.00    -0.010 A 
HETATM   35  C   MK1     0      27.643  16.245  -6.708  0.00  0.00     0.022 A 
HETATM   36  C   MK1     0      27.194  16.448  -3.668  0.00  0.00     0.027 A 
HETATM   37  C   MK1     0      26.620  15.254  -4.453  0.00  0.00     0.005 A 
HETATM   38  C   MK1     0      26.845  15.152  -5.973  0.00  0.00     0.005 A 
ENDBRANCH  28  29
ENDBRANCH  25  26
BRANCH  25  39
HETATM   39  C   MK1     0      30.899  18.895   0.905  0.00  0.00     0.026 C 
BRANCH  39  40
HETATM   40  C   MK1     0      32.161  19.762   0.733  0.00  0.00     0.004 A 
HETATM   41  C   MK1     0      32.615  20.694   1.870  0.00  0.00     0.000 A 
HETATM   42  C   MK1     0      33.877  21.561   1.698  0.00  0.00     0.000 A 
HETATM   43  C   MK1     0      34.684  21.495   0.388  0.00  0.00     0.000 A 
HETATM   44  C   MK1     0      34.228  20.561  -0.750  0.00  0.00     0.000 A 
HETATM   45  C   MK1     0      32.967  19.695  -0.577  0.00  0.00     0.000 A 
ENDBRANCH  39  40
ENDBRANCH  25  39
ENDBRANCH  24  25
ENDBRANCH   2  24
TORSDOF 10
ENDMDL
MODEL 9
REMARK VINA RESULT:    -6.568      4.976     10.410
REMARK INTER + INTRA:         -12.365
REMARK INTER:                 -10.150
REMARK INTRA:                  -2.215
REMARK UNBOUND:                -1.958
REMARK  10 active torsions:
REMARK  status: ('A' for Active; 'I' for Inactive)
REMARK    1  A    between atoms: N_5  and  C_13 
REMARK    2  A    between atoms: N_6  and  C_21 
REMARK    3  A    between atoms: N_7  and  C_18 
REMARK       I    between atoms: N_7  and  C_24 
REMARK    4  A    between atoms: C_13  and  C_15 
REMARK    5  A    between atoms: C_15  and  C_16 
REMARK    6  A    between atoms: C_16  and  C_17 
REMARK    7  A    between atoms: C_17  and  C_24 
REMARK    8  A    between atoms: C_17  and  C_25 
REMARK    9  A    between atoms: C_21  and  C_28 
REMARK   10  A    between atoms: C_25  and  C_30 
ROOT
HETATM    1  O   MK1     0      27.944  15.634   0.746  0.00  0.00    -0.221 OA
HETATM    2  C   MK1     0      26.816  15.933  -0.259  0.00  0.00     0.178 C 
ENDROOT
BRANCH   2   3
HETATM    3  C   MK1     0      26.947  15.473  -1.723  0.00  0.00     0.135 C 
BRANCH   3   4
HETATM    4  N   MK1     0      27.515  16.435  -2.783  0.00  0.00    -0.339 N 
HETATM    5  C   MK1     0      27.642  15.978  -4.248  0.00  0.00     0.123 A 
HETATM    6  C   MK1     0      28.210  16.940  -5.309  0.00  0.00     0.108 A 
HETATM    7  C   MK1     0      27.201  14.559  -4.653  0.00  0.00     0.227 A 
HETATM    8  N   MK1     0      28.651  18.359  -4.903  0.00  0.00    -0.339 N 
HETATM    9  C   MK1     0      28.077  16.147  -6.099  0.00  0.00    -0.089 A 
HETATM   10  C   MK1     0      28.524  18.815  -3.438  0.00  0.00     0.126 A 
HETATM   11  C   MK1     0      27.957  17.854  -2.378  0.00  0.00     0.126 A 
HETATM   12  C   MK1     0      27.895  15.064  -7.178  0.00  0.00     0.134 A 
HETATM   13  N   MK1     0      27.327  14.102  -6.119  0.00  0.00    -0.237 NA
HETATM   14  C   MK1     0      27.713  13.980  -8.259  0.00  0.00     0.037 C 
HETATM   15  C   MK1     0      28.463  16.025  -8.239  0.00  0.00     0.037 C 
HETATM   16  O   MK1     0      26.633  13.598  -3.593  0.00  0.00    -0.168 OA
BRANCH   8  17
HETATM   17  C   MK1     0      29.219  19.320  -5.964  0.00  0.00     0.104 C 
BRANCH  17  18
HETATM   18  C   MK1     0      30.726  19.637  -5.988  0.00  0.00     0.046 A 
HETATM   19  C   MK1     0      31.727  18.668  -5.332  0.00  0.00     0.006 A 
HETATM   20  C   MK1     0      33.234  18.984  -5.355  0.00  0.00     0.026 A 
HETATM   21  C   MK1     0      33.740  20.270  -6.035  0.00  0.00     0.120 A 
HETATM   22  N   MK1     0      32.739  21.239  -6.692  0.00  0.00    -0.295 NA
HETATM   23  C   MK1     0      31.232  20.922  -6.668  0.00  0.00     0.122 A 
ENDBRANCH  17  18
ENDBRANCH   8  17
ENDBRANCH   3   4
ENDBRANCH   2   3
BRANCH   2  24
HETATM   24  C   MK1     0      25.557  16.691   0.200  0.00  0.00     0.061 C 
BRANCH  24  25
HETATM   25  C   MK1     0      25.628  17.645   1.407  0.00  0.00     0.002 C 
BRANCH  25  26
HETATM   26  C   MK1     0      25.436  17.097   2.833  0.00  0.00     0.205 C 
HETATM   27  O   MK1     0      25.967  17.892   4.041  0.00  0.00    -0.170 OA
HETATM   28  N   MK1     0      24.712  15.756   3.053  0.00  0.00    -0.219 NA
BRANCH  28  29
HETATM   29  C   MK1     0      24.519  15.209   4.479  0.00  0.00     0.100 A 
HETATM   30  C   MK1     0      25.633  14.743   5.421  0.00  0.00     0.130 A 
HETATM   31  O   MK1     0      27.140  14.740   5.107  0.00  0.00    -0.193 OA
HETATM   32  C   MK1     0      24.986  14.281   6.730  0.00  0.00     0.077 A 
HETATM   33  C   MK1     0      23.471  14.460   6.601  0.00  0.00    -0.040 A 
HETATM   34  C   MK1     0      23.181  15.037   5.203  0.00  0.00    -0.010 A 
HETATM   35  C   MK1     0      22.310  14.175   7.572  0.00  0.00     0.022 A 
HETATM   36  C   MK1     0      21.730  15.328   4.776  0.00  0.00     0.027 A 
HETATM   37  C   MK1     0      20.569  15.043   5.747  0.00  0.00     0.005 A 
HETATM   38  C   MK1     0      20.859  14.466   7.145  0.00  0.00     0.005 A 
ENDBRANCH  28  29
ENDBRANCH  25  26
BRANCH  25  39
HETATM   39  C   MK1     0      25.893  19.146   1.188  0.00  0.00     0.026 C 
BRANCH  39  40
HETATM   40  C   MK1     0      27.276  19.622   0.705  0.00  0.00     0.004 A 
HETATM   41  C   MK1     0      27.386  20.817  -0.259  0.00  0.00     0.000 A 
HETATM   42  C   MK1     0      28.769  21.292  -0.742  0.00  0.00     0.000 A 
HETATM   43  C   MK1     0      30.042  20.573  -0.260  0.00  0.00     0.000 A 
HETATM   44  C   MK1     0      29.932  19.377   0.706  0.00  0.00     0.000 A 
HETATM   45  C   MK1     0      28.549  18.902   1.188  0.00  0.00     0.000 A 
ENDBRANCH  39  40
ENDBRANCH  25  39
ENDBRANCH  24  25
ENDBRANCH   2  24
TORSDOF 10
ENDMDL
