MODEL 1
REMARK VINA RESULT:   -11.010      0.000      0.000
REMARK INTER + INTRA:         -19.656
REMARK INTER:                 -17.446
REMARK INTRA:                  -2.210
REMARK UNBOUND:                -2.210
REMARK  10 active torsions:
REMARK  status: ('A' for Active; 'I' for Inactive)
REMARK    1  A    between atoms: N_5  and  C_13 
REMARK    2  A    between atoms: N_6  and  C_21 
REMARK    3  A    between atoms: N_7  and  C_18 
REMARK       I    between atoms: N_7  and  C_24 
REMARK    4  A    between atoms: C_13  and  C_15 
REMARK    5  A    between atoms: C_15  and  C_16 
REMARK    6  A    between atoms: C_16  and  C_17 
REMARK    7  A    between atoms: C_17  and  C_24 
REMARK    8  A    between atoms: C_17  and  C_25 
REMARK    9  A    between atoms: C_21  and  C_28 
REMARK   10  A    between atoms: C_25  and  C_30 
ROOT
HETATM    1  O   MK1     0      11.631  22.977   6.779  0.00  0.00    -0.221 OA
HETATM    2  C   MK1     0      12.437  24.280   6.933  0.00  0.00     0.178 C 
ENDROOT
BRANCH   2   3
HETATM    3  C   MK1     0      12.061  25.521   6.103  0.00  0.00     0.135 C 
BRANCH   3   4
HETATM    4  N   MK1     0      10.929  25.437   5.062  0.00  0.00    -0.339 N 
HETATM    5  C   MK1     0       9.553  26.056   5.368  0.00  0.00     0.123 A 
HETATM    6  C   MK1     0       8.421  25.972   4.328  0.00  0.00     0.108 A 
HETATM    7  C   MK1     0       9.309  26.761   6.716  0.00  0.00     0.227 A 
HETATM    8  N   MK1     0       8.666  25.267   2.980  0.00  0.00    -0.339 N 
HETATM    9  C   MK1     0       7.736  26.532   5.027  0.00  0.00    -0.089 A 
HETATM   10  C   MK1     0      10.042  24.647   2.674  0.00  0.00     0.126 A 
HETATM   11  C   MK1     0      11.173  24.732   3.715  0.00  0.00     0.126 A 
HETATM   12  C   MK1     0       6.801  27.296   5.981  0.00  0.00     0.134 A 
HETATM   13  N   MK1     0       7.933  27.382   7.023  0.00  0.00    -0.237 NA
HETATM   14  C   MK1     0       5.865  28.062   6.937  0.00  0.00     0.037 C 
HETATM   15  C   MK1     0       5.669  27.212   4.941  0.00  0.00     0.037 C 
HETATM   16  O   MK1     0      10.441  26.846   7.756  0.00  0.00    -0.168 OA
BRANCH   8  17
HETATM   17  C   MK1     0       7.533  25.183   1.939  0.00  0.00     0.104 C 
BRANCH  17  18
HETATM   18  C   MK1     0       6.190  24.529   2.314  0.00  0.00     0.046 A 
HETATM   19  C   MK1     0       6.134  23.473   3.434  0.00  0.00     0.006 A 
HETATM   20  C   MK1     0       4.792  22.819   3.809  0.00  0.00     0.026 A 
HETATM   21  C   MK1     0       3.504  23.222   3.065  0.00  0.00     0.120 A 
HETATM   22  N   MK1     0       3.560  24.278   1.946  0.00  0.00    -0.295 NA
HETATM   23  C   MK1     0       4.903  24.932   1.571  0.00  0.00     0.122 A 
ENDBRANCH  17  18
ENDBRANCH   8  17
ENDBRANCH   3   4
ENDBRANCH   2   3
BRANCH   2  24
HETATM   24  C   MK1     0      13.619  24.343   7.918  0.00  0.00     0.061 C 
BRANCH  24  25
HETATM   25  C   MK1     0      14.918  23.574   7.612  0.00  0.00     0.002 C 
BRANCH  25  26
HETATM   26  C   MK1     0      15.108  22.899   6.241  0.00  0.00     0.205 C 
HETATM   27  O   MK1     0      15.361  23.759   4.988  0.00  0.00    -0.170 OA
HETATM   28  N   MK1     0      15.046  21.364   6.122  0.00  0.00    -0.219 NA
BRANCH  28  29
HETATM   29  C   MK1     0      15.237  20.690   4.752  0.00  0.00     0.100 A 
HETATM   30  C   MK1     0      14.375  20.924   3.507  0.00  0.00     0.130 A 
HETATM   31  O   MK1     0      13.168  21.874   3.409  0.00  0.00    -0.193 OA
HETATM   32  C   MK1     0      14.924  20.048   2.378  0.00  0.00     0.077 A 
HETATM   33  C   MK1     0      16.126  19.270   2.920  0.00  0.00    -0.040 A 
HETATM   34  C   MK1     0      16.320  19.669   4.395  0.00  0.00    -0.010 A 
HETATM   35  C   MK1     0      17.075  18.247   2.268  0.00  0.00     0.022 A 
HETATM   36  C   MK1     0      17.463  19.045   5.217  0.00  0.00     0.027 A 
HETATM   37  C   MK1     0      18.412  18.022   4.565  0.00  0.00     0.005 A 
HETATM   38  C   MK1     0      18.218  17.623   3.090  0.00  0.00     0.005 A 
ENDBRANCH  28  29
ENDBRANCH  25  26
BRANCH  25  39
HETATM   39  C   MK1     0      16.027  23.480   8.676  0.00  0.00     0.026 C 
BRANCH  39  40
HETATM   40  C   MK1     0      16.634  22.112   9.038  0.00  0.00     0.004 A 
HETATM   41  C   MK1     0      15.792  21.074   9.803  0.00  0.00     0.000 A 
HETATM   42  C   MK1     0      16.399  19.705  10.164  0.00  0.00     0.000 A 
HETATM   43  C   MK1     0      17.848  19.374   9.760  0.00  0.00     0.000 A 
HETATM   44  C   MK1     0      18.690  20.412   8.994  0.00  0.00     0.000 A 
HETATM   45  C   MK1     0      18.082  21.780   8.633  0.00  0.00     0.000 A 
ENDBRANCH  39  40
ENDBRANCH  25  39
ENDBRANCH  24  25
ENDBRANCH   2  24
TORSDOF 10
ENDMDL
MODEL 2
REMARK VINA RESULT:   -10.416      2.489     11.742
REMARK INTER + INTRA:         -18.715
REMARK INTER:                 -16.475
REMARK INTRA:                  -2.240
REMARK UNBOUND:                -2.210
REMARK  10 active torsions:
REMARK  status: ('A' for Active; 'I' for Inactive)
REMARK    1  A    between atoms: N_5  and  C_13 
REMARK    2  A    between atoms: N_6  and  C_21 
REMARK    3  A    between atoms: N_7  and  C_18 
REMARK       I    between atoms: N_7  and  C_24 
REMARK    4  A    between atoms: C_13  and  C_15 
REMARK    5  A    between atoms: C_15  and  C_16 
REMARK    6  A    between atoms: C_16  and  C_17 
REMARK    7  A    between atoms: C_17  and  C_24 
REMARK    8  A    between atoms: C_17  and  C_25 
REMARK    9  A    between atoms: C_21  and  C_28 
REMARK   10  A    between atoms: C_25  and  C_30 
ROOT
HETATM    1  O   MK1     0      13.144  21.207   6.162  0.00  0.00    -0.221 OA
HETATM    2  C   MK1     0      13.878  21.682   4.894  0.00  0.00     0.178 C 
ENDROOT
BRANCH   2   3
HETATM    3  C   MK1     0      15.414  21.793   4.889  0.00  0.00     0.135 C 
BRANCH   3   4
HETATM    4  N   MK1     0      16.222  21.338   6.118  0.00  0.00    -0.339 N 
HETATM    5  C   MK1     0      17.019  20.021   6.071  0.00  0.00     0.123 A 
HETATM    6  C   MK1     0      17.828  19.566   7.301  0.00  0.00     0.108 A 
HETATM    7  C   MK1     0      17.009  19.159   4.795  0.00  0.00     0.227 A 
HETATM    8  N   MK1     0      17.838  20.427   8.577  0.00  0.00    -0.339 N 
HETATM    9  C   MK1     0      18.160  18.645   6.741  0.00  0.00    -0.089 A 
HETATM   10  C   MK1     0      17.041  21.744   8.624  0.00  0.00     0.126 A 
HETATM   11  C   MK1     0      16.233  22.199   7.395  0.00  0.00     0.126 A 
HETATM   12  C   MK1     0      18.614  17.388   5.977  0.00  0.00     0.134 A 
HETATM   13  N   MK1     0      17.806  17.843   4.747  0.00  0.00    -0.237 NA
HETATM   14  C   MK1     0      19.068  16.129   5.213  0.00  0.00     0.037 C 
HETATM   15  C   MK1     0      19.422  16.932   7.206  0.00  0.00     0.037 C 
HETATM   16  O   MK1     0      16.200  19.615   3.566  0.00  0.00    -0.168 OA
BRANCH   8  17
HETATM   17  C   MK1     0      18.647  19.972   9.806  0.00  0.00     0.104 C 
BRANCH  17  18
HETATM   18  C   MK1     0      18.264  18.674  10.542  0.00  0.00     0.046 A 
HETATM   19  C   MK1     0      16.791  18.225  10.596  0.00  0.00     0.006 A 
HETATM   20  C   MK1     0      16.407  16.929  11.331  0.00  0.00     0.026 A 
HETATM   21  C   MK1     0      17.496  16.079  12.013  0.00  0.00     0.120 A 
HETATM   22  N   MK1     0      18.969  16.527  11.959  0.00  0.00    -0.295 NA
HETATM   23  C   MK1     0      19.352  17.825  11.224  0.00  0.00     0.122 A 
ENDBRANCH  17  18
ENDBRANCH   8  17
ENDBRANCH   3   4
ENDBRANCH   2   3
BRANCH   2  24
HETATM   24  C   MK1     0      13.076  22.047   3.631  0.00  0.00     0.061 C 
BRANCH  24  25
HETATM   25  C   MK1     0      12.229  23.333   3.601  0.00  0.00     0.002 C 
BRANCH  25  26
HETATM   26  C   MK1     0      12.245  24.294   4.805  0.00  0.00     0.205 C 
HETATM   27  O   MK1     0      13.304  25.410   4.884  0.00  0.00    -0.170 OA
HETATM   28  N   MK1     0      11.203  24.140   5.929  0.00  0.00    -0.219 NA
BRANCH  28  29
HETATM   29  C   MK1     0      11.220  25.100   7.131  0.00  0.00     0.100 A 
HETATM   30  C   MK1     0      12.336  25.218   8.173  0.00  0.00     0.130 A 
HETATM   31  O   MK1     0      13.638  24.395   8.200  0.00  0.00    -0.193 OA
HETATM   32  C   MK1     0      11.932  26.295   9.183  0.00  0.00     0.077 A 
HETATM   33  C   MK1     0      10.566  26.848   8.769  0.00  0.00    -0.040 A 
HETATM   34  C   MK1     0      10.124  26.105   7.494  0.00  0.00    -0.010 A 
HETATM   35  C   MK1     0       9.660  27.932   9.382  0.00  0.00     0.022 A 
HETATM   36  C   MK1     0       8.775  26.447   6.833  0.00  0.00     0.027 A 
HETATM   37  C   MK1     0       7.869  27.531   7.447  0.00  0.00     0.005 A 
HETATM   38  C   MK1     0       8.311  28.273   8.721  0.00  0.00     0.005 A 
ENDBRANCH  28  29
ENDBRANCH  25  26
BRANCH  25  39
HETATM   39  C   MK1     0      11.365  23.658   2.368  0.00  0.00     0.026 C 
BRANCH  39  40
HETATM   40  C   MK1     0       9.854  23.907   2.531  0.00  0.00     0.004 A 
HETATM   41  C   MK1     0       8.975  22.867   3.250  0.00  0.00     0.000 A 
HETATM   42  C   MK1     0       7.464  23.115   3.412  0.00  0.00     0.000 A 
HETATM   43  C   MK1     0       6.832  24.404   2.855  0.00  0.00     0.000 A 
HETATM   44  C   MK1     0       7.711  25.445   2.136  0.00  0.00     0.000 A 
HETATM   45  C   MK1     0       9.221  25.196   1.974  0.00  0.00     0.000 A 
ENDBRANCH  39  40
ENDBRANCH  25  39
ENDBRANCH  24  25
ENDBRANCH   2  24
TORSDOF 10
ENDMDL
MODEL 3
REMARK VINA RESULT:   -10.265      2.367      5.308
REMARK INTER + INTRA:         -18.476
REMARK INTER:                 -16.339
REMARK INTRA:                  -2.137
REMARK UNBOUND:                -2.210
REMARK  10 active torsions:
REMARK  status: ('A' for Active; 'I' for Inactive)
REMARK    1  A    between atoms: N_5  and  C_13 
REMARK    2  A    between atoms: N_6  and  C_21 
REMARK    3  A    between atoms: N_7  and  C_18 
REMARK       I    between atoms: N_7  and  C_24 
REMARK    4  A    between atoms: C_13  and  C_15 
REMARK    5  A    between atoms: C_15  and  C_16 
REMARK    6  A    between atoms: C_16  and  C_17 
REMARK    7  A    between atoms: C_17  and  C_24 
REMARK    8  A    between atoms: C_17  and  C_25 
REMARK    9  A    between atoms: C_21  and  C_28 
REMARK   10  A    between atoms: C_25  and  C_30 
ROOT
HETATM    1  O   MK1     0       9.885  23.137   2.252  0.00  0.00    -0.221 OA
HETATM    2  C   MK1     0      10.214  24.519   2.846  0.00  0.00     0.178 C 
ENDROOT
BRANCH   2   3
HETATM    3  C   MK1     0       9.225  25.687   2.675  0.00  0.00     0.135 C 
BRANCH   3   4
HETATM    4  N   MK1     0       8.388  26.169   3.874  0.00  0.00    -0.339 N 
HETATM    5  C   MK1     0       6.891  25.819   3.959  0.00  0.00     0.123 A 
HETATM    6  C   MK1     0       6.053  26.300   5.158  0.00  0.00     0.108 A 
HETATM    7  C   MK1     0       6.230  24.986   2.844  0.00  0.00     0.227 A 
HETATM    8  N   MK1     0       6.714  27.132   6.273  0.00  0.00    -0.339 N 
HETATM    9  C   MK1     0       5.141  25.800   4.722  0.00  0.00    -0.089 A 
HETATM   10  C   MK1     0       8.211  27.482   6.189  0.00  0.00     0.126 A 
HETATM   11  C   MK1     0       9.048  27.001   4.990  0.00  0.00     0.126 A 
HETATM   12  C   MK1     0       3.896  25.118   4.127  0.00  0.00     0.134 A 
HETATM   13  N   MK1     0       4.733  24.636   2.928  0.00  0.00    -0.237 NA
HETATM   14  C   MK1     0       2.650  24.435   3.532  0.00  0.00     0.037 C 
HETATM   15  C   MK1     0       3.058  25.600   5.327  0.00  0.00     0.037 C 
HETATM   16  O   MK1     0       7.068  24.505   1.644  0.00  0.00    -0.168 OA
BRANCH   8  17
HETATM   17  C   MK1     0       5.876  27.614   7.473  0.00  0.00     0.104 C 
BRANCH  17  18
HETATM   18  C   MK1     0       4.622  28.477   7.239  0.00  0.00     0.046 A 
HETATM   19  C   MK1     0       3.282  28.080   7.886  0.00  0.00     0.006 A 
HETATM   20  C   MK1     0       2.028  28.942   7.653  0.00  0.00     0.026 A 
HETATM   21  C   MK1     0       2.114  30.204   6.772  0.00  0.00     0.120 A 
HETATM   22  N   MK1     0       3.455  30.601   6.126  0.00  0.00    -0.295 NA
HETATM   23  C   MK1     0       4.708  29.738   6.359  0.00  0.00     0.122 A 
ENDBRANCH  17  18
ENDBRANCH   8  17
ENDBRANCH   3   4
ENDBRANCH   2   3
BRANCH   2  24
HETATM   24  C   MK1     0      11.533  24.734   3.612  0.00  0.00     0.061 C 
BRANCH  24  25
HETATM   25  C   MK1     0      11.865  23.858   4.834  0.00  0.00     0.002 C 
BRANCH  25  26
HETATM   26  C   MK1     0      13.232  23.153   4.927  0.00  0.00     0.205 C 
HETATM   27  O   MK1     0      14.530  23.981   4.874  0.00  0.00    -0.170 OA
HETATM   28  N   MK1     0      13.301  21.621   5.073  0.00  0.00    -0.219 NA
BRANCH  28  29
HETATM   29  C   MK1     0      14.667  20.918   5.166  0.00  0.00     0.100 A 
HETATM   30  C   MK1     0      15.589  20.901   6.389  0.00  0.00     0.130 A 
HETATM   31  O   MK1     0      15.310  21.586   7.741  0.00  0.00    -0.193 OA
HETATM   32  C   MK1     0      16.835  20.086   6.035  0.00  0.00     0.077 A 
HETATM   33  C   MK1     0      16.688  19.596   4.592  0.00  0.00    -0.040 A 
HETATM   34  C   MK1     0      15.341  20.113   4.053  0.00  0.00    -0.010 A 
HETATM   35  C   MK1     0      17.602  18.744   3.691  0.00  0.00     0.022 A 
HETATM   36  C   MK1     0      14.909  19.778   2.613  0.00  0.00     0.027 A 
HETATM   37  C   MK1     0      15.824  18.927   1.712  0.00  0.00     0.005 A 
HETATM   38  C   MK1     0      17.170  18.410   2.251  0.00  0.00     0.005 A 
ENDBRANCH  28  29
ENDBRANCH  25  26
BRANCH  25  39
HETATM   39  C   MK1     0      10.833  23.685   5.963  0.00  0.00     0.026 C 
BRANCH  39  40
HETATM   40  C   MK1     0      10.948  24.527   7.248  0.00  0.00     0.004 A 
HETATM   41  C   MK1     0      12.302  25.142   7.646  0.00  0.00     0.000 A 
HETATM   42  C   MK1     0      12.418  25.984   8.931  0.00  0.00     0.000 A 
HETATM   43  C   MK1     0      11.179  26.211   9.817  0.00  0.00     0.000 A 
HETATM   44  C   MK1     0       9.824  25.596   9.418  0.00  0.00     0.000 A 
HETATM   45  C   MK1     0       9.710  24.754   8.134  0.00  0.00     0.000 A 
ENDBRANCH  39  40
ENDBRANCH  25  39
ENDBRANCH  24  25
ENDBRANCH   2  24
TORSDOF 10
ENDMDL
MODEL 4
REMARK VINA RESULT:   -10.126      2.446     10.938
REMARK INTER + INTRA:         -18.255
REMARK INTER:                 -16.023
REMARK INTRA:                  -2.233
REMARK UNBOUND:                -2.210
REMARK  10 active torsions:
REMARK  status: ('A' for Active; 'I' for Inactive)
REMARK    1  A    between atoms: N_5  and  C_13 
REMARK    2  A    between atoms: N_6  and  C_21 
REMARK    3  A    between atoms: N_7  and  C_18 
REMARK       I    between atoms: N_7  and  C_24 
REMARK    4  A    between atoms: C_13  and  C_15 
REMARK    5  A    between atoms: C_15  and  C_16 
REMARK    6  A    between atoms: C_16  and  C_17 
REMARK    7  A    between atoms: C_17  and  C_24 
REMARK    8  A    between atoms: C_17  and  C_25 
REMARK    9  A    between atoms: C_21  and  C_28 
REMARK   10  A    between atoms: C_25  and  C_30 
ROOT
HETATM    1  O   MK1     0      15.571  23.674   6.072  0.00  0.00    -0.221 OA
HETATM    2  C   MK1     0      14.803  23.161   7.305  0.00  0.00     0.178 C 
ENDROOT
BRANCH   2   3
HETATM    3  C   MK1     0      14.629  21.647   7.529  0.00  0.00     0.135 C 
BRANCH   3   4
HETATM    4  N   MK1     0      15.824  20.697   7.325  0.00  0.00    -0.339 N 
HETATM    5  C   MK1     0      16.001  19.958   5.986  0.00  0.00     0.123 A 
HETATM    6  C   MK1     0      17.195  19.008   5.782  0.00  0.00     0.108 A 
HETATM    7  C   MK1     0      14.982  20.169   4.850  0.00  0.00     0.227 A 
HETATM    8  N   MK1     0      18.214  18.797   6.918  0.00  0.00    -0.339 N 
HETATM    9  C   MK1     0      16.839  18.784   4.735  0.00  0.00    -0.089 A 
HETATM   10  C   MK1     0      18.037  19.536   8.257  0.00  0.00     0.126 A 
HETATM   11  C   MK1     0      16.843  20.486   8.461  0.00  0.00     0.126 A 
HETATM   12  C   MK1     0      16.353  18.480   3.307  0.00  0.00     0.134 A 
HETATM   13  N   MK1     0      15.158  19.429   3.510  0.00  0.00    -0.237 NA
HETATM   14  C   MK1     0      15.867  18.174   1.877  0.00  0.00     0.037 C 
HETATM   15  C   MK1     0      17.548  17.529   3.102  0.00  0.00     0.037 C 
HETATM   16  O   MK1     0      13.787  21.119   5.054  0.00  0.00    -0.168 OA
BRANCH   8  17
HETATM   17  C   MK1     0      19.409  17.847   6.713  0.00  0.00     0.104 C 
BRANCH  17  18
HETATM   18  C   MK1     0      19.234  16.332   6.931  0.00  0.00     0.046 A 
HETATM   19  C   MK1     0      19.466  15.355   5.764  0.00  0.00     0.006 A 
HETATM   20  C   MK1     0      19.292  13.841   5.980  0.00  0.00     0.026 A 
HETATM   21  C   MK1     0      18.885  13.303   7.365  0.00  0.00     0.120 A 
HETATM   22  N   MK1     0      18.652  14.280   8.533  0.00  0.00    -0.295 NA
HETATM   23  C   MK1     0      18.827  15.795   8.315  0.00  0.00     0.122 A 
ENDBRANCH  17  18
ENDBRANCH   8  17
ENDBRANCH   3   4
ENDBRANCH   2   3
BRANCH   2  24
HETATM   24  C   MK1     0      14.209  24.161   8.314  0.00  0.00     0.061 C 
BRANCH  24  25
HETATM   25  C   MK1     0      12.822  24.779   8.059  0.00  0.00     0.002 C 
BRANCH  25  26
HETATM   26  C   MK1     0      11.981  24.316   6.855  0.00  0.00     0.205 C 
HETATM   27  O   MK1     0      11.364  22.904   6.845  0.00  0.00    -0.170 OA
HETATM   28  N   MK1     0      11.757  25.262   5.660  0.00  0.00    -0.219 NA
BRANCH  28  29
HETATM   29  C   MK1     0      10.917  24.798   4.457  0.00  0.00     0.100 A 
HETATM   30  C   MK1     0      11.396  23.887   3.324  0.00  0.00     0.130 A 
HETATM   31  O   MK1     0      12.803  23.274   3.189  0.00  0.00    -0.193 OA
HETATM   32  C   MK1     0      10.233  23.690   2.348  0.00  0.00     0.077 A 
HETATM   33  C   MK1     0       9.032  24.479   2.874  0.00  0.00    -0.040 A 
HETATM   34  C   MK1     0       9.457  25.167   4.185  0.00  0.00    -0.010 A 
HETATM   35  C   MK1     0       7.601  24.665   2.335  0.00  0.00     0.022 A 
HETATM   36  C   MK1     0       8.450  26.042   4.956  0.00  0.00     0.027 A 
HETATM   37  C   MK1     0       7.020  26.228   4.417  0.00  0.00     0.005 A 
HETATM   38  C   MK1     0       6.595  25.539   3.107  0.00  0.00     0.005 A 
ENDBRANCH  28  29
ENDBRANCH  25  26
BRANCH  25  39
HETATM   39  C   MK1     0      12.274  25.862   9.008  0.00  0.00     0.026 C 
BRANCH  39  40
HETATM   40  C   MK1     0      10.811  26.324   8.886  0.00  0.00     0.004 A 
HETATM   41  C   MK1     0      10.491  27.802   8.596  0.00  0.00     0.000 A 
HETATM   42  C   MK1     0       9.028  28.265   8.474  0.00  0.00     0.000 A 
HETATM   43  C   MK1     0       7.882  27.249   8.641  0.00  0.00     0.000 A 
HETATM   44  C   MK1     0       8.202  25.770   8.931  0.00  0.00     0.000 A 
HETATM   45  C   MK1     0       9.665  25.308   9.053  0.00  0.00     0.000 A 
ENDBRANCH  39  40
ENDBRANCH  25  39
ENDBRANCH  24  25
ENDBRANCH   2  24
TORSDOF 10
ENDMDL
MODEL 5
REMARK VINA RESULT:    -9.946      1.963      4.157
REMARK INTER + INTRA:         -17.970
REMARK INTER:                 -16.088
REMARK INTRA:                  -1.882
REMARK UNBOUND:                -2.210
REMARK  10 active torsions:
REMARK  status: ('A' for Active; 'I' for Inactive)
REMARK    1  A    between atoms: N_5  and  C_13 
REMARK    2  A    between atoms: N_6  and  C_21 
REMARK    3  A    between atoms: N_7  and  C_18 
REMARK       I    between atoms: N_7  and  C_24 
REMARK    4  A    between atoms: C_13  and  C_15 
REMARK    5  A    between atoms: C_15  and  C_16 
REMARK    6  A    between atoms: C_16  and  C_17 
REMARK    7  A    between atoms: C_17  and  C_24 
REMARK    8  A    between atoms: C_17  and  C_25 
REMARK    9  A    between atoms: C_21  and  C_28 
REMARK   10  A    between atoms: C_25  and  C_30 
ROOT
HETATM    1  O   MK1     0      10.046  22.542   3.424  0.00  0.00    -0.221 OA
HETATM    2  C   MK1     0      10.714  23.927   3.511  0.00  0.00     0.178 C 
ENDROOT
BRANCH   2   3
HETATM    3  C   MK1     0       9.949  25.181   3.051  0.00  0.00     0.135 C 
BRANCH   3   4
HETATM    4  N   MK1     0       8.411  25.161   2.980  0.00  0.00    -0.339 N 
HETATM    5  C   MK1     0       7.579  25.840   4.083  0.00  0.00     0.123 A 
HETATM    6  C   MK1     0       6.041  25.820   4.012  0.00  0.00     0.108 A 
HETATM    7  C   MK1     0       8.286  26.541   5.259  0.00  0.00     0.227 A 
HETATM    8  N   MK1     0       5.334  25.120   2.836  0.00  0.00    -0.339 N 
HETATM    9  C   MK1     0       5.988  26.404   4.975  0.00  0.00    -0.089 A 
HETATM   10  C   MK1     0       6.166  24.440   1.733  0.00  0.00     0.126 A 
HETATM   11  C   MK1     0       7.704  24.460   1.804  0.00  0.00     0.126 A 
HETATM   12  C   MK1     0       5.916  27.200   6.290  0.00  0.00     0.134 A 
HETATM   13  N   MK1     0       7.455  27.221   6.363  0.00  0.00    -0.237 NA
HETATM   14  C   MK1     0       5.844  27.998   7.607  0.00  0.00     0.037 C 
HETATM   15  C   MK1     0       4.378  27.180   6.219  0.00  0.00     0.037 C 
HETATM   16  O   MK1     0       9.824  26.561   5.330  0.00  0.00    -0.168 OA
BRANCH   8  17
HETATM   17  C   MK1     0       3.796  25.099   2.765  0.00  0.00     0.104 C 
BRANCH  17  18
HETATM   18  C   MK1     0       3.033  23.776   2.964  0.00  0.00     0.046 A 
HETATM   19  C   MK1     0       1.537  23.689   2.608  0.00  0.00     0.006 A 
HETATM   20  C   MK1     0       0.774  22.367   2.806  0.00  0.00     0.026 A 
HETATM   21  C   MK1     0       1.507  21.131   3.362  0.00  0.00     0.120 A 
HETATM   22  N   MK1     0       3.002  21.218   3.718  0.00  0.00    -0.295 NA
HETATM   23  C   MK1     0       3.765  22.541   3.519  0.00  0.00     0.122 A 
ENDBRANCH  17  18
ENDBRANCH   8  17
ENDBRANCH   3   4
ENDBRANCH   2   3
BRANCH   2  24
HETATM   24  C   MK1     0      12.148  24.057   4.058  0.00  0.00     0.061 C 
BRANCH  24  25
HETATM   25  C   MK1     0      12.627  23.132   5.191  0.00  0.00     0.002 C 
BRANCH  25  26
HETATM   26  C   MK1     0      13.997  22.435   5.088  0.00  0.00     0.205 C 
HETATM   27  O   MK1     0      15.212  23.204   4.538  0.00  0.00    -0.170 OA
HETATM   28  N   MK1     0      14.152  20.969   5.536  0.00  0.00    -0.219 NA
BRANCH  28  29
HETATM   29  C   MK1     0      15.521  20.273   5.434  0.00  0.00     0.100 A 
HETATM   30  C   MK1     0      16.632  20.313   6.488  0.00  0.00     0.130 A 
HETATM   31  O   MK1     0      16.573  21.056   7.835  0.00  0.00    -0.193 OA
HETATM   32  C   MK1     0      17.810  19.485   5.968  0.00  0.00     0.077 A 
HETATM   33  C   MK1     0      17.433  18.931   4.592  0.00  0.00    -0.040 A 
HETATM   34  C   MK1     0      16.011  19.421   4.260  0.00  0.00    -0.010 A 
HETATM   35  C   MK1     0      18.194  18.043   3.591  0.00  0.00     0.022 A 
HETATM   36  C   MK1     0      15.351  19.022   2.927  0.00  0.00     0.027 A 
HETATM   37  C   MK1     0      16.113  18.134   1.926  0.00  0.00     0.005 A 
HETATM   38  C   MK1     0      17.535  17.644   2.258  0.00  0.00     0.005 A 
ENDBRANCH  28  29
ENDBRANCH  25  26
BRANCH  25  39
HETATM   39  C   MK1     0      11.738  22.902   6.428  0.00  0.00     0.026 C 
BRANCH  39  40
HETATM   40  C   MK1     0      11.447  24.066   7.393  0.00  0.00     0.004 A 
HETATM   41  C   MK1     0      12.601  24.940   7.916  0.00  0.00     0.000 A 
HETATM   42  C   MK1     0      12.310  26.104   8.882  0.00  0.00     0.000 A 
HETATM   43  C   MK1     0      10.863  26.393   9.325  0.00  0.00     0.000 A 
HETATM   44  C   MK1     0       9.708  25.518   8.802  0.00  0.00     0.000 A 
HETATM   45  C   MK1     0      10.000  24.355   7.836  0.00  0.00     0.000 A 
ENDBRANCH  39  40
ENDBRANCH  25  39
ENDBRANCH  24  25
ENDBRANCH   2  24
TORSDOF 10
ENDMDL
MODEL 6
REMARK VINA RESULT:    -9.872      2.341     11.154
REMARK INTER + INTRA:         -17.853
REMARK INTER:                 -16.168
REMARK INTRA:                  -1.685
REMARK UNBOUND:                -2.210
REMARK  10 active torsions:
REMARK  status: ('A' for Active; 'I' for Inactive)
REMARK    1  A    between atoms: N_5  and  C_13 
REMARK    2  A    between atoms: N_6  and  C_21 
REMARK    3  A    between atoms: N_7  and  C_18 
REMARK       I    between atoms: N_7  and  C_24 
REMARK    4  A    between atoms: C_13  and  C_15 
REMARK    5  A    between atoms: C_15  and  C_16 
REMARK    6  A    between atoms: C_16  and  C_17 
REMARK    7  A    between atoms: C_17  and  C_24 
REMARK    8  A    between atoms: C_17  and  C_25 
REMARK    9  A    between atoms: C_21  and  C_28 
REMARK   10  A    between atoms: C_25  and  C_30 
ROOT
HETATM    1  O   MK1     0      12.084  21.531   6.815  0.00  0.00    -0.221 OA
HETATM    2  C   MK1     0      12.357  22.245   5.478  0.00  0.00     0.178 C 
ENDROOT
BRANCH   2   3
HETATM    3  C   MK1     0      13.805  22.445   4.994  0.00  0.00     0.135 C 
BRANCH   3   4
HETATM    4  N   MK1     0      14.975  21.849   5.798  0.00  0.00    -0.339 N 
HETATM    5  C   MK1     0      15.812  20.701   5.205  0.00  0.00     0.123 A 
HETATM    6  C   MK1     0      16.982  20.105   6.010  0.00  0.00     0.108 A 
HETATM    7  C   MK1     0      15.479  20.148   3.807  0.00  0.00     0.227 A 
HETATM    8  N   MK1     0      17.315  20.658   7.408  0.00  0.00    -0.339 N 
HETATM    9  C   MK1     0      17.195  19.386   5.168  0.00  0.00    -0.089 A 
HETATM   10  C   MK1     0      16.478  21.806   8.002  0.00  0.00     0.126 A 
HETATM   11  C   MK1     0      15.308  22.402   7.197  0.00  0.00     0.126 A 
HETATM   12  C   MK1     0      17.486  18.404   4.018  0.00  0.00     0.134 A 
HETATM   13  N   MK1     0      16.316  19.000   3.213  0.00  0.00    -0.237 NA
HETATM   14  C   MK1     0      17.778  17.422   2.867  0.00  0.00     0.037 C 
HETATM   15  C   MK1     0      18.657  17.808   4.822  0.00  0.00     0.037 C 
HETATM   16  O   MK1     0      14.309  20.744   3.002  0.00  0.00    -0.168 OA
BRANCH   8  17
HETATM   17  C   MK1     0      18.485  20.062   8.213  0.00  0.00     0.104 C 
BRANCH  17  18
HETATM   18  C   MK1     0      18.275  18.783   9.045  0.00  0.00     0.046 A 
HETATM   19  C   MK1     0      17.429  18.832  10.332  0.00  0.00     0.006 A 
HETATM   20  C   MK1     0      17.219  17.555  11.165  0.00  0.00     0.026 A 
HETATM   21  C   MK1     0      17.854  16.226  10.711  0.00  0.00     0.120 A 
HETATM   22  N   MK1     0      18.700  16.177   9.425  0.00  0.00    -0.295 NA
HETATM   23  C   MK1     0      18.910  17.456   8.592  0.00  0.00     0.122 A 
ENDBRANCH  17  18
ENDBRANCH   8  17
ENDBRANCH   3   4
ENDBRANCH   2   3
BRANCH   2  24
HETATM   24  C   MK1     0      11.182  22.759   4.626  0.00  0.00     0.061 C 
BRANCH  24  25
HETATM   25  C   MK1     0      10.659  24.194   4.822  0.00  0.00     0.002 C 
BRANCH  25  26
HETATM   26  C   MK1     0       9.348  24.635   4.143  0.00  0.00     0.205 C 
HETATM   27  O   MK1     0       8.932  26.118   4.164  0.00  0.00    -0.170 OA
HETATM   28  N   MK1     0       8.454  23.594   3.445  0.00  0.00    -0.219 NA
BRANCH  28  29
HETATM   29  C   MK1     0       7.144  24.035   2.768  0.00  0.00     0.100 A 
HETATM   30  C   MK1     0       7.019  25.046   1.624  0.00  0.00     0.130 A 
HETATM   31  O   MK1     0       8.182  25.799   0.952  0.00  0.00    -0.193 OA
HETATM   32  C   MK1     0       5.536  25.178   1.266  0.00  0.00     0.077 A 
HETATM   33  C   MK1     0       4.740  24.249   2.186  0.00  0.00    -0.040 A 
HETATM   34  C   MK1     0       5.739  23.539   3.119  0.00  0.00    -0.010 A 
HETATM   35  C   MK1     0       3.233  23.952   2.302  0.00  0.00     0.022 A 
HETATM   36  C   MK1     0       5.230  22.531   4.167  0.00  0.00     0.027 A 
HETATM   37  C   MK1     0       3.724  22.234   4.283  0.00  0.00     0.005 A 
HETATM   38  C   MK1     0       2.725  22.944   3.350  0.00  0.00     0.005 A 
ENDBRANCH  28  29
ENDBRANCH  25  26
BRANCH  25  39
HETATM   39  C   MK1     0      11.446  25.190   5.695  0.00  0.00     0.026 C 
BRANCH  39  40
HETATM   40  C   MK1     0      11.091  25.354   7.185  0.00  0.00     0.004 A 
HETATM   41  C   MK1     0      12.164  25.820   8.185  0.00  0.00     0.000 A 
HETATM   42  C   MK1     0      11.810  25.985   9.675  0.00  0.00     0.000 A 
HETATM   43  C   MK1     0      10.381  25.684  10.164  0.00  0.00     0.000 A 
HETATM   44  C   MK1     0       9.306  25.218   9.162  0.00  0.00     0.000 A 
HETATM   45  C   MK1     0       9.662  25.053   7.674  0.00  0.00     0.000 A 
ENDBRANCH  39  40
ENDBRANCH  25  39
ENDBRANCH  24  25
ENDBRANCH   2  24
TORSDOF 10
ENDMDL
MODEL 7
REMARK VINA RESULT:    -9.468      2.060     11.178
REMARK INTER + INTRA:         -17.213
REMARK INTER:                 -15.311
REMARK INTRA:                  -1.901
REMARK UNBOUND:                -2.210
REMARK  10 active torsions:
REMARK  status: ('A' for Active; 'I' for Inactive)
REMARK    1  A    between atoms: N_5  and  C_13 
REMARK    2  A    between atoms: N_6  and  C_21 
REMARK    3  A    between atoms: N_7  and  C_18 
REMARK       I    between atoms: N_7  and  C_24 
REMARK    4  A    between atoms: C_13  and  C_15 
REMARK    5  A    between atoms: C_15  and  C_16 
REMARK    6  A    between atoms: C_16  and  C_17 
REMARK    7  A    between atoms: C_17  and  C_24 
REMARK    8  A    between atoms: C_17  and  C_25 
REMARK    9  A    between atoms: C_21  and  C_28 
REMARK   10  A    between atoms: C_25  and  C_30 
ROOT
HETATM    1  O   MK1     0      10.455  22.139   4.537  0.00  0.00    -0.221 OA
HETATM    2  C   MK1     0      11.258  22.621   3.314  0.00  0.00     0.178 C 
ENDROOT
BRANCH   2   3
HETATM    3  C   MK1     0      12.755  22.280   3.193  0.00  0.00     0.135 C 
BRANCH   3   4
HETATM    4  N   MK1     0      13.685  22.456   4.407  0.00  0.00    -0.339 N 
HETATM    5  C   MK1     0      14.876  21.502   4.609  0.00  0.00     0.123 A 
HETATM    6  C   MK1     0      15.807  21.678   5.824  0.00  0.00     0.108 A 
HETATM    7  C   MK1     0      15.137  20.371   3.598  0.00  0.00     0.227 A 
HETATM    8  N   MK1     0      15.546  22.810   6.836  0.00  0.00    -0.339 N 
HETATM    9  C   MK1     0      16.421  20.797   5.481  0.00  0.00    -0.089 A 
HETATM   10  C   MK1     0      14.355  23.764   6.633  0.00  0.00     0.126 A 
HETATM   11  C   MK1     0      13.425  23.588   5.419  0.00  0.00     0.126 A 
HETATM   12  C   MK1     0      17.259  19.593   5.014  0.00  0.00     0.134 A 
HETATM   13  N   MK1     0      16.329  19.416   3.799  0.00  0.00    -0.237 NA
HETATM   14  C   MK1     0      18.098  18.388   4.546  0.00  0.00     0.037 C 
HETATM   15  C   MK1     0      18.190  19.769   6.228  0.00  0.00     0.037 C 
HETATM   16  O   MK1     0      14.206  20.194   2.383  0.00  0.00    -0.168 OA
BRANCH   8  17
HETATM   17  C   MK1     0      16.477  22.986   8.050  0.00  0.00     0.104 C 
BRANCH  17  18
HETATM   18  C   MK1     0      16.929  21.756   8.859  0.00  0.00     0.046 A 
HETATM   19  C   MK1     0      15.880  20.791   9.443  0.00  0.00     0.006 A 
HETATM   20  C   MK1     0      16.331  19.561  10.252  0.00  0.00     0.026 A 
HETATM   21  C   MK1     0      17.832  19.294  10.476  0.00  0.00     0.120 A 
HETATM   22  N   MK1     0      18.880  20.259   9.892  0.00  0.00    -0.295 NA
HETATM   23  C   MK1     0      18.429  21.489   9.083  0.00  0.00     0.122 A 
ENDBRANCH  17  18
ENDBRANCH   8  17
ENDBRANCH   3   4
ENDBRANCH   2   3
BRANCH   2  24
HETATM   24  C   MK1     0      10.564  23.444   2.213  0.00  0.00     0.061 C 
BRANCH  24  25
HETATM   25  C   MK1     0       9.203  24.108   2.490  0.00  0.00     0.002 C 
BRANCH  25  26
HETATM   26  C   MK1     0       9.103  25.272   3.494  0.00  0.00     0.205 C 
HETATM   27  O   MK1     0       9.098  26.727   2.987  0.00  0.00    -0.170 OA
HETATM   28  N   MK1     0       9.010  24.983   5.004  0.00  0.00    -0.219 NA
BRANCH  28  29
HETATM   29  C   MK1     0       8.911  26.147   6.006  0.00  0.00     0.100 A 
HETATM   30  C   MK1     0       7.829  27.230   6.022  0.00  0.00     0.130 A 
HETATM   31  O   MK1     0       6.650  27.345   5.038  0.00  0.00    -0.193 OA
HETATM   32  C   MK1     0       8.123  28.179   7.187  0.00  0.00     0.077 A 
HETATM   33  C   MK1     0       9.387  27.686   7.895  0.00  0.00    -0.040 A 
HETATM   34  C   MK1     0       9.877  26.423   7.161  0.00  0.00    -0.010 A 
HETATM   35  C   MK1     0      10.164  28.217   9.114  0.00  0.00     0.022 A 
HETATM   36  C   MK1     0      11.143  25.692   7.647  0.00  0.00     0.027 A 
HETATM   37  C   MK1     0      11.919  26.224   8.866  0.00  0.00     0.005 A 
HETATM   38  C   MK1     0      11.430  27.487   9.600  0.00  0.00     0.005 A 
ENDBRANCH  28  29
ENDBRANCH  25  26
BRANCH  25  39
HETATM   39  C   MK1     0       7.940  23.609   1.764  0.00  0.00     0.026 C 
BRANCH  39  40
HETATM   40  C   MK1     0       6.545  23.983   2.299  0.00  0.00     0.004 A 
HETATM   41  C   MK1     0       5.970  23.253   3.527  0.00  0.00     0.000 A 
HETATM   42  C   MK1     0       4.575  23.627   4.062  0.00  0.00     0.000 A 
HETATM   43  C   MK1     0       3.755  24.732   3.370  0.00  0.00     0.000 A 
HETATM   44  C   MK1     0       4.331  25.462   2.141  0.00  0.00     0.000 A 
HETATM   45  C   MK1     0       5.725  25.087   1.606  0.00  0.00     0.000 A 
ENDBRANCH  39  40
ENDBRANCH  25  39
ENDBRANCH  24  25
ENDBRANCH   2  24
TORSDOF 10
ENDMDL
MODEL 8
REMARK VINA RESULT:    -9.262      2.337     11.262
REMARK INTER + INTRA:         -16.886
REMARK INTER:                 -14.864
REMARK INTRA:                  -2.023
REMARK UNBOUND:                -2.210
REMARK  10 active torsions:
REMARK  status: ('A' for Active; 'I' for Inactive)
REMARK    1  A    between atoms: N_5  and  C_13 
REMARK    2  A    between atoms: N_6  and  C_21 
REMARK    3  A    between atoms: N_7  and  C_18 
REMARK       I    between atoms: N_7  and  C_24 
REMARK    4  A    between atoms: C_13  and  C_15 
REMARK    5  A    between atoms: C_15  and  C_16 
REMARK    6  A    between atoms: C_16  and  C_17 
REMARK    7  A    between atoms: C_17  and  C_24 
REMARK    8  A    between atoms: C_17  and  C_25 
REMARK    9  A    between atoms: C_21  and  C_28 
REMARK   10  A    between atoms: C_25  and  C_30 
ROOT
HETATM    1  O   MK1     0      10.541  21.710   3.932  0.00  0.00    -0.221 OA
HETATM    2  C   MK1     0      11.597  22.763   3.547  0.00  0.00     0.178 C 
ENDROOT
BRANCH   2   3
HETATM    3  C   MK1     0      13.079  22.360   3.428  0.00  0.00     0.135 C 
BRANCH   3   4
HETATM    4  N   MK1     0      13.994  22.420   4.665  0.00  0.00    -0.339 N 
HETATM    5  C   MK1     0      15.143  21.408   4.823  0.00  0.00     0.123 A 
HETATM    6  C   MK1     0      16.059  21.468   6.060  0.00  0.00     0.108 A 
HETATM    7  C   MK1     0      15.378  20.335   3.743  0.00  0.00     0.227 A 
HETATM    8  N   MK1     0      15.824  22.541   7.140  0.00  0.00    -0.339 N 
HETATM    9  C   MK1     0      16.644  20.586   5.670  0.00  0.00    -0.089 A 
HETATM   10  C   MK1     0      14.674  23.553   6.982  0.00  0.00     0.126 A 
HETATM   11  C   MK1     0      13.759  23.493   5.745  0.00  0.00     0.126 A 
HETATM   12  C   MK1     0      17.443  19.383   5.138  0.00  0.00     0.134 A 
HETATM   13  N   MK1     0      16.528  19.322   3.900  0.00  0.00    -0.237 NA
HETATM   14  C   MK1     0      18.243  18.178   4.605  0.00  0.00     0.037 C 
HETATM   15  C   MK1     0      18.358  19.443   6.375  0.00  0.00     0.037 C 
HETATM   16  O   MK1     0      14.463  20.275   2.506  0.00  0.00    -0.168 OA
BRANCH   8  17
HETATM   17  C   MK1     0      16.740  22.601   8.377  0.00  0.00     0.104 C 
BRANCH  17  18
HETATM   18  C   MK1     0      17.079  21.311   9.147  0.00  0.00     0.046 A 
HETATM   19  C   MK1     0      15.947  20.413   9.681  0.00  0.00     0.006 A 
HETATM   20  C   MK1     0      16.285  19.123  10.451  0.00  0.00     0.026 A 
HETATM   21  C   MK1     0      17.756  18.731  10.687  0.00  0.00     0.120 A 
HETATM   22  N   MK1     0      18.887  19.629  10.153  0.00  0.00    -0.295 NA
HETATM   23  C   MK1     0      18.548  20.919   9.383  0.00  0.00     0.122 A 
ENDBRANCH  17  18
ENDBRANCH   8  17
ENDBRANCH   3   4
ENDBRANCH   2   3
BRANCH   2  24
HETATM   24  C   MK1     0      11.172  24.218   3.280  0.00  0.00     0.061 C 
BRANCH  24  25
HETATM   25  C   MK1     0      10.245  24.944   4.273  0.00  0.00     0.002 C 
BRANCH  25  26
HETATM   26  C   MK1     0       8.718  24.775   4.166  0.00  0.00     0.205 C 
HETATM   27  O   MK1     0       8.097  23.366   4.199  0.00  0.00    -0.170 OA
HETATM   28  N   MK1     0       7.813  26.013   4.027  0.00  0.00    -0.219 NA
BRANCH  28  29
HETATM   29  C   MK1     0       6.287  25.842   3.921  0.00  0.00     0.100 A 
HETATM   30  C   MK1     0       5.526  25.284   2.715  0.00  0.00     0.130 A 
HETATM   31  O   MK1     0       6.154  24.796   1.397  0.00  0.00    -0.193 OA
HETATM   32  C   MK1     0       4.032  25.297   3.048  0.00  0.00     0.077 A 
HETATM   33  C   MK1     0       3.864  25.862   4.460  0.00  0.00    -0.040 A 
HETATM   34  C   MK1     0       5.264  26.201   5.003  0.00  0.00    -0.010 A 
HETATM   35  C   MK1     0       2.619  26.116   5.331  0.00  0.00     0.022 A 
HETATM   36  C   MK1     0       5.420  26.794   6.416  0.00  0.00     0.027 A 
HETATM   37  C   MK1     0       4.175  27.048   7.287  0.00  0.00     0.005 A 
HETATM   38  C   MK1     0       2.774  26.709   6.744  0.00  0.00     0.005 A 
ENDBRANCH  28  29
ENDBRANCH  25  26
BRANCH  25  39
HETATM   39  C   MK1     0      10.845  25.841   5.372  0.00  0.00     0.026 C 
BRANCH  39  40
HETATM   40  C   MK1     0      10.078  26.061   6.689  0.00  0.00     0.004 A 
HETATM   41  C   MK1     0      10.021  24.942   7.745  0.00  0.00     0.000 A 
HETATM   42  C   MK1     0       9.254  25.163   9.062  0.00  0.00     0.000 A 
HETATM   43  C   MK1     0       8.542  26.504   9.323  0.00  0.00     0.000 A 
HETATM   44  C   MK1     0       8.599  27.624   8.267  0.00  0.00     0.000 A 
HETATM   45  C   MK1     0       9.366  27.402   6.951  0.00  0.00     0.000 A 
ENDBRANCH  39  40
ENDBRANCH  25  39
ENDBRANCH  24  25
ENDBRANCH   2  24
TORSDOF 10
ENDMDL
MODEL 9
REMARK VINA RESULT:    -9.117      2.513      4.918
REMARK INTER + INTRA:         -16.656
REMARK INTER:                 -14.861
REMARK INTRA:                  -1.796
REMARK UNBOUND:                -2.210
REMARK  10 active torsions:
REMARK  status: ('A' for Active; 'I' for Inactive)
REMARK    1  A    between atoms: N_5  and  C_13 
REMARK    2  A    between atoms: N_6  and  C_21 
REMARK    3  A    between atoms: N_7  and  C_18 
REMARK       I    between atoms: N_7  and  C_24 
REMARK    4  A    between atoms: C_13  and  C_15 
REMARK    5  A    between atoms: C_15  and  C_16 
REMARK    6  A    between atoms: C_16  and  C_17 
REMARK    7  A    between atoms: C_17  and  C_24 
REMARK    8  A    between atoms: C_17  and  C_25 
REMARK    9  A    between atoms: C_21  and  C_28 
REMARK   10  A    between atoms: C_25  and  C_30 
ROOT
HETATM    1  O   MK1     0       8.863  23.059   4.014  0.00  0.00    -0.221 OA
HETATM    2  C   MK1     0       9.503  24.431   3.736  0.00  0.00     0.178 C 
ENDROOT
BRANCH   2   3
HETATM    3  C   MK1     0       8.618  25.687   3.629  0.00  0.00     0.135 C 
BRANCH   3   4
HETATM    4  N   MK1     0       7.162  25.563   3.144  0.00  0.00    -0.339 N 
HETATM    5  C   MK1     0       6.008  26.061   4.033  0.00  0.00     0.123 A 
HETATM    6  C   MK1     0       4.551  25.937   3.548  0.00  0.00     0.108 A 
HETATM    7  C   MK1     0       6.310  26.684   5.409  0.00  0.00     0.227 A 
HETATM    8  N   MK1     0       4.249  25.314   2.172  0.00  0.00    -0.339 N 
HETATM    9  C   MK1     0       4.192  26.411   4.506  0.00  0.00    -0.089 A 
HETATM   10  C   MK1     0       5.403  24.816   1.282  0.00  0.00     0.126 A 
HETATM   11  C   MK1     0       6.859  24.940   1.768  0.00  0.00     0.126 A 
HETATM   12  C   MK1     0       3.700  27.058   5.814  0.00  0.00     0.134 A 
HETATM   13  N   MK1     0       5.156  27.182   6.300  0.00  0.00    -0.237 NA
HETATM   14  C   MK1     0       3.208  27.705   7.123  0.00  0.00     0.037 C 
HETATM   15  C   MK1     0       2.244  26.934   5.328  0.00  0.00     0.037 C 
HETATM   16  O   MK1     0       7.766  26.808   5.895  0.00  0.00    -0.168 OA
BRANCH   8  17
HETATM   17  C   MK1     0       2.793  25.190   1.687  0.00  0.00     0.104 C 
BRANCH  17  18
HETATM   18  C   MK1     0       2.283  26.088   0.544  0.00  0.00     0.046 A 
HETATM   19  C   MK1     0       2.478  27.614   0.618  0.00  0.00     0.006 A 
HETATM   20  C   MK1     0       1.969  28.512  -0.523  0.00  0.00     0.026 A 
HETATM   21  C   MK1     0       1.263  27.884  -1.741  0.00  0.00     0.120 A 
HETATM   22  N   MK1     0       1.068  26.358  -1.815  0.00  0.00    -0.295 NA
HETATM   23  C   MK1     0       1.578  25.461  -0.672  0.00  0.00     0.122 A 
ENDBRANCH  17  18
ENDBRANCH   8  17
ENDBRANCH   3   4
ENDBRANCH   2   3
BRANCH   2  24
HETATM   24  C   MK1     0      11.028  24.549   3.564  0.00  0.00     0.061 C 
BRANCH  24  25
HETATM   25  C   MK1     0      11.954  24.422   4.788  0.00  0.00     0.002 C 
BRANCH  25  26
HETATM   26  C   MK1     0      12.708  23.105   5.051  0.00  0.00     0.205 C 
HETATM   27  O   MK1     0      11.923  21.793   5.234  0.00  0.00    -0.170 OA
HETATM   28  N   MK1     0      14.246  23.100   5.130  0.00  0.00    -0.219 NA
BRANCH  28  29
HETATM   29  C   MK1     0      14.999  21.784   5.392  0.00  0.00     0.100 A 
HETATM   30  C   MK1     0      15.740  21.412   6.680  0.00  0.00     0.130 A 
HETATM   31  O   MK1     0      15.861  22.291   7.939  0.00  0.00    -0.193 OA
HETATM   32  C   MK1     0      16.339  20.015   6.498  0.00  0.00     0.077 A 
HETATM   33  C   MK1     0      15.971  19.518   5.098  0.00  0.00    -0.040 A 
HETATM   34  C   MK1     0      15.139  20.617   4.411  0.00  0.00    -0.010 A 
HETATM   35  C   MK1     0      16.282  18.207   4.351  0.00  0.00     0.022 A 
HETATM   36  C   MK1     0      14.618  20.405   2.977  0.00  0.00     0.027 A 
HETATM   37  C   MK1     0      14.929  19.094   2.230  0.00  0.00     0.005 A 
HETATM   38  C   MK1     0      15.761  17.995   2.917  0.00  0.00     0.005 A 
ENDBRANCH  28  29
ENDBRANCH  25  26
BRANCH  25  39
HETATM   39  C   MK1     0      12.126  25.612   5.751  0.00  0.00     0.026 C 
BRANCH  39  40
HETATM   40  C   MK1     0      11.477  25.573   7.147  0.00  0.00     0.004 A 
HETATM   41  C   MK1     0      10.020  25.100   7.306  0.00  0.00     0.000 A 
HETATM   42  C   MK1     0       9.371  25.061   8.702  0.00  0.00     0.000 A 
HETATM   43  C   MK1     0      10.179  25.495   9.940  0.00  0.00     0.000 A 
HETATM   44  C   MK1     0      11.637  25.968   9.781  0.00  0.00     0.000 A 
HETATM   45  C   MK1     0      12.285  26.007   8.385  0.00  0.00     0.000 A 
ENDBRANCH  39  40
ENDBRANCH  25  39
ENDBRANCH  24  25
ENDBRANCH   2  24
TORSDOF 10
ENDMDL
