MODEL 1
REMARK VINA RESULT:   -10.988      0.000      0.000
REMARK INTER + INTRA:         -19.654
REMARK INTER:                 -17.412
REMARK INTRA:                  -2.242
REMARK UNBOUND:                -2.242
REMARK  10 active torsions:
REMARK  status: ('A' for Active; 'I' for Inactive)
REMARK    1  A    between atoms: N_5  and  C_13 
REMARK    2  A    between atoms: N_6  and  C_21 
REMARK    3  A    between atoms: N_7  and  C_18 
REMARK       I    between atoms: N_7  and  C_24 
REMARK    4  A    between atoms: C_13  and  C_15 
REMARK    5  A    between atoms: C_15  and  C_16 
REMARK    6  A    between atoms: C_16  and  C_17 
REMARK    7  A    between atoms: C_17  and  C_24 
REMARK    8  A    between atoms: C_17  and  C_25 
REMARK    9  A    between atoms: C_21  and  C_28 
REMARK   10  A    between atoms: C_25  and  C_30 
ROOT
HETATM    1  O   MK1     0      11.648  23.000   6.827  0.00  0.00    -0.221 OA
HETATM    2  C   MK1     0      12.486  24.286   6.955  0.00  0.00     0.178 C 
ENDROOT
BRANCH   2   3
HETATM    3  C   MK1     0      12.135  25.522   6.106  0.00  0.00     0.135 C 
BRANCH   3   4
HETATM    4  N   MK1     0      10.995  25.447   5.074  0.00  0.00    -0.339 N 
HETATM    5  C   MK1     0       9.623  26.067   5.396  0.00  0.00     0.123 A 
HETATM    6  C   MK1     0       8.482  25.993   4.364  0.00  0.00     0.108 A 
HETATM    7  C   MK1     0       9.390  26.761   6.752  0.00  0.00     0.227 A 
HETATM    8  N   MK1     0       8.715  25.299   3.009  0.00  0.00    -0.339 N 
HETATM    9  C   MK1     0       7.804  26.548   5.073  0.00  0.00    -0.089 A 
HETATM   10  C   MK1     0      10.087  24.679   2.687  0.00  0.00     0.126 A 
HETATM   11  C   MK1     0      11.227  24.754   3.719  0.00  0.00     0.126 A 
HETATM   12  C   MK1     0       6.878  27.306   6.042  0.00  0.00     0.134 A 
HETATM   13  N   MK1     0       8.018  27.381   7.075  0.00  0.00    -0.237 NA
HETATM   14  C   MK1     0       5.951  28.065   7.011  0.00  0.00     0.037 C 
HETATM   15  C   MK1     0       5.737  27.232   5.009  0.00  0.00     0.037 C 
HETATM   16  O   MK1     0      10.531  26.835   7.784  0.00  0.00    -0.168 OA
BRANCH   8  17
HETATM   17  C   MK1     0       7.574  25.225   1.977  0.00  0.00     0.104 C 
BRANCH  17  18
HETATM   18  C   MK1     0       6.253  24.519   2.338  0.00  0.00     0.046 A 
HETATM   19  C   MK1     0       6.219  23.487   3.480  0.00  0.00     0.006 A 
HETATM   20  C   MK1     0       4.900  22.781   3.842  0.00  0.00     0.026 A 
HETATM   21  C   MK1     0       3.613  23.108   3.060  0.00  0.00     0.120 A 
HETATM   22  N   MK1     0       3.647  24.140   1.918  0.00  0.00    -0.295 NA
HETATM   23  C   MK1     0       4.967  24.845   1.557  0.00  0.00     0.122 A 
ENDBRANCH  17  18
ENDBRANCH   8  17
ENDBRANCH   3   4
ENDBRANCH   2   3
BRANCH   2  24
HETATM   24  C   MK1     0      13.675  24.336   7.932  0.00  0.00     0.061 C 
BRANCH  24  25
HETATM   25  C   MK1     0      14.955  23.534   7.630  0.00  0.00     0.002 C 
BRANCH  25  26
HETATM   26  C   MK1     0      15.140  22.870   6.252  0.00  0.00     0.205 C 
HETATM   27  O   MK1     0      15.421  23.737   5.012  0.00  0.00    -0.170 OA
HETATM   28  N   MK1     0      15.044  21.338   6.116  0.00  0.00    -0.219 NA
BRANCH  28  29
HETATM   29  C   MK1     0      15.229  20.675   4.739  0.00  0.00     0.100 A 
HETATM   30  C   MK1     0      14.359  20.914   3.502  0.00  0.00     0.130 A 
HETATM   31  O   MK1     0      13.146  21.859   3.418  0.00  0.00    -0.193 OA
HETATM   32  C   MK1     0      14.905  20.049   2.363  0.00  0.00     0.077 A 
HETATM   33  C   MK1     0      16.114  19.273   2.891  0.00  0.00    -0.040 A 
HETATM   34  C   MK1     0      16.315  19.662   4.368  0.00  0.00    -0.010 A 
HETATM   35  C   MK1     0      17.064  18.260   2.226  0.00  0.00     0.022 A 
HETATM   36  C   MK1     0      17.467  19.038   5.178  0.00  0.00     0.027 A 
HETATM   37  C   MK1     0      18.417  18.025   4.513  0.00  0.00     0.005 A 
HETATM   38  C   MK1     0      18.216  17.636   3.036  0.00  0.00     0.005 A 
ENDBRANCH  28  29
ENDBRANCH  25  26
BRANCH  25  39
HETATM   39  C   MK1     0      16.050  23.395   8.704  0.00  0.00     0.026 C 
BRANCH  39  40
HETATM   40  C   MK1     0      16.640  22.010   9.028  0.00  0.00     0.004 A 
HETATM   41  C   MK1     0      15.823  20.997   9.850  0.00  0.00     0.000 A 
HETATM   42  C   MK1     0      16.413  19.612  10.174  0.00  0.00     0.000 A 
HETATM   43  C   MK1     0      17.822  19.239   9.674  0.00  0.00     0.000 A 
HETATM   44  C   MK1     0      18.639  20.253   8.850  0.00  0.00     0.000 A 
HETATM   45  C   MK1     0      18.048  21.637   8.528  0.00  0.00     0.000 A 
ENDBRANCH  39  40
ENDBRANCH  25  39
ENDBRANCH  24  25
ENDBRANCH   2  24
TORSDOF 10
ENDMDL
MODEL 2
REMARK VINA RESULT:   -10.239      1.965      4.661
REMARK INTER + INTRA:         -18.467
REMARK INTER:                 -16.303
REMARK INTRA:                  -2.164
REMARK UNBOUND:                -2.242
REMARK  10 active torsions:
REMARK  status: ('A' for Active; 'I' for Inactive)
REMARK    1  A    between atoms: N_5  and  C_13 
REMARK    2  A    between atoms: N_6  and  C_21 
REMARK    3  A    between atoms: N_7  and  C_18 
REMARK       I    between atoms: N_7  and  C_24 
REMARK    4  A    between atoms: C_13  and  C_15 
REMARK    5  A    between atoms: C_15  and  C_16 
REMARK    6  A    between atoms: C_16  and  C_17 
REMARK    7  A    between atoms: C_17  and  C_24 
REMARK    8  A    between atoms: C_17  and  C_25 
REMARK    9  A    between atoms: C_21  and  C_28 
REMARK   10  A    between atoms: C_25  and  C_30 
ROOT
HETATM    1  O   MK1     0      10.295  23.166   4.854  0.00  0.00    -0.221 OA
HETATM    2  C   MK1     0      10.691  24.644   4.677  0.00  0.00     0.178 C 
ENDROOT
BRANCH   2   3
HETATM    3  C   MK1     0       9.816  25.579   3.821  0.00  0.00     0.135 C 
BRANCH   3   4
HETATM    4  N   MK1     0       8.319  25.270   3.630  0.00  0.00    -0.339 N 
HETATM    5  C   MK1     0       7.262  26.064   4.419  0.00  0.00     0.123 A 
HETATM    6  C   MK1     0       5.765  25.756   4.229  0.00  0.00     0.108 A 
HETATM    7  C   MK1     0       7.701  27.168   5.400  0.00  0.00     0.227 A 
HETATM    8  N   MK1     0       5.326  24.652   3.248  0.00  0.00    -0.339 N 
HETATM    9  C   MK1     0       5.504  26.558   4.977  0.00  0.00    -0.089 A 
HETATM   10  C   MK1     0       6.383  23.858   2.459  0.00  0.00     0.126 A 
HETATM   11  C   MK1     0       7.879  24.167   2.650  0.00  0.00     0.126 A 
HETATM   12  C   MK1     0       5.148  27.653   5.998  0.00  0.00     0.134 A 
HETATM   13  N   MK1     0       6.645  27.963   6.190  0.00  0.00    -0.237 NA
HETATM   14  C   MK1     0       4.791  28.750   7.020  0.00  0.00     0.037 C 
HETATM   15  C   MK1     0       3.651  27.345   5.807  0.00  0.00     0.037 C 
HETATM   16  O   MK1     0       9.198  27.476   5.591  0.00  0.00    -0.168 OA
BRANCH   8  17
HETATM   17  C   MK1     0       3.829  24.344   3.057  0.00  0.00     0.104 C 
BRANCH  17  18
HETATM   18  C   MK1     0       3.349  22.884   2.968  0.00  0.00     0.046 A 
HETATM   19  C   MK1     0       3.712  21.884   4.083  0.00  0.00     0.006 A 
HETATM   20  C   MK1     0       3.233  20.424   3.995  0.00  0.00     0.026 A 
HETATM   21  C   MK1     0       2.389  19.962   2.791  0.00  0.00     0.120 A 
HETATM   22  N   MK1     0       2.026  20.961   1.677  0.00  0.00    -0.295 NA
HETATM   23  C   MK1     0       2.506  22.422   1.766  0.00  0.00     0.122 A 
ENDBRANCH  17  18
ENDBRANCH   8  17
ENDBRANCH   3   4
ENDBRANCH   2   3
BRANCH   2  24
HETATM   24  C   MK1     0      11.962  25.187   5.355  0.00  0.00     0.061 C 
BRANCH  24  25
HETATM   25  C   MK1     0      12.525  24.491   6.608  0.00  0.00     0.002 C 
BRANCH  25  26
HETATM   26  C   MK1     0      13.245  23.135   6.477  0.00  0.00     0.205 C 
HETATM   27  O   MK1     0      12.528  21.839   6.900  0.00  0.00    -0.170 OA
HETATM   28  N   MK1     0      14.681  23.075   5.924  0.00  0.00    -0.219 NA
BRANCH  28  29
HETATM   29  C   MK1     0      15.400  21.721   5.793  0.00  0.00     0.100 A 
HETATM   30  C   MK1     0      16.284  21.066   6.859  0.00  0.00     0.130 A 
HETATM   31  O   MK1     0      16.608  21.647   8.247  0.00  0.00    -0.193 OA
HETATM   32  C   MK1     0      16.788  19.732   6.303  0.00  0.00     0.077 A 
HETATM   33  C   MK1     0      16.219  19.557   4.893  0.00  0.00    -0.040 A 
HETATM   34  C   MK1     0      15.356  20.793   4.576  0.00  0.00    -0.010 A 
HETATM   35  C   MK1     0      16.370  18.436   3.848  0.00  0.00     0.022 A 
HETATM   36  C   MK1     0      14.644  20.907   3.215  0.00  0.00     0.027 A 
HETATM   37  C   MK1     0      14.795  19.785   2.171  0.00  0.00     0.005 A 
HETATM   38  C   MK1     0      15.657  18.549   2.487  0.00  0.00     0.005 A 
ENDBRANCH  28  29
ENDBRANCH  25  26
BRANCH  25  39
HETATM   39  C   MK1     0      12.368  25.148   7.992  0.00  0.00     0.026 C 
BRANCH  39  40
HETATM   40  C   MK1     0      11.043  25.834   8.373  0.00  0.00     0.004 A 
HETATM   41  C   MK1     0      11.023  27.334   8.720  0.00  0.00     0.000 A 
HETATM   42  C   MK1     0       9.698  28.019   9.101  0.00  0.00     0.000 A 
HETATM   43  C   MK1     0       8.391  27.205   9.135  0.00  0.00     0.000 A 
HETATM   44  C   MK1     0       8.411  25.704   8.787  0.00  0.00     0.000 A 
HETATM   45  C   MK1     0       9.736  25.019   8.407  0.00  0.00     0.000 A 
ENDBRANCH  39  40
ENDBRANCH  25  39
ENDBRANCH  24  25
ENDBRANCH   2  24
TORSDOF 10
ENDMDL
MODEL 3
REMARK VINA RESULT:   -10.075      2.073     11.734
REMARK INTER + INTRA:         -18.208
REMARK INTER:                 -15.981
REMARK INTRA:                  -2.227
REMARK UNBOUND:                -2.242
REMARK  10 active torsions:
REMARK  status: ('A' for Active; 'I' for Inactive)
REMARK    1  A    between atoms: N_5  and  C_13 
REMARK    2  A    between atoms: N_6  and  C_21 
REMARK    3  A    between atoms: N_7  and  C_18 
REMARK       I    between atoms: N_7  and  C_24 
REMARK    4  A    between atoms: C_13  and  C_15 
REMARK    5  A    between atoms: C_15  and  C_16 
REMARK    6  A    between atoms: C_16  and  C_17 
REMARK    7  A    between atoms: C_17  and  C_24 
REMARK    8  A    between atoms: C_17  and  C_25 
REMARK    9  A    between atoms: C_21  and  C_28 
REMARK   10  A    between atoms: C_25  and  C_30 
ROOT
HETATM    1  O   MK1     0      13.601  24.868   8.217  0.00  0.00    -0.221 OA
HETATM    2  C   MK1     0      13.353  24.052   6.935  0.00  0.00     0.178 C 
ENDROOT
BRANCH   2   3
HETATM    3  C   MK1     0      13.352  22.513   6.990  0.00  0.00     0.135 C 
BRANCH   3   4
HETATM    4  N   MK1     0      14.593  21.761   7.503  0.00  0.00    -0.339 N 
HETATM    5  C   MK1     0      15.446  20.926   6.529  0.00  0.00     0.123 A 
HETATM    6  C   MK1     0      16.688  20.173   7.042  0.00  0.00     0.108 A 
HETATM    7  C   MK1     0      15.057  20.844   5.041  0.00  0.00     0.227 A 
HETATM    8  N   MK1     0      17.077  20.256   8.530  0.00  0.00    -0.339 N 
HETATM    9  C   MK1     0      16.883  19.786   6.002  0.00  0.00    -0.089 A 
HETATM   10  C   MK1     0      16.225  21.090   9.504  0.00  0.00     0.126 A 
HETATM   11  C   MK1     0      14.983  21.842   8.991  0.00  0.00     0.126 A 
HETATM   12  C   MK1     0      17.150  19.257   4.581  0.00  0.00     0.134 A 
HETATM   13  N   MK1     0      15.909  20.009   4.067  0.00  0.00    -0.237 NA
HETATM   14  C   MK1     0      17.418  18.728   3.159  0.00  0.00     0.037 C 
HETATM   15  C   MK1     0      18.392  18.504   5.094  0.00  0.00     0.037 C 
HETATM   16  O   MK1     0      13.815  21.596   4.528  0.00  0.00    -0.168 OA
BRANCH   8  17
HETATM   17  C   MK1     0      18.319  19.503   9.043  0.00  0.00     0.104 C 
BRANCH  17  18
HETATM   18  C   MK1     0      18.178  18.074   9.601  0.00  0.00     0.046 A 
HETATM   19  C   MK1     0      17.321  17.819  10.855  0.00  0.00     0.006 A 
HETATM   20  C   MK1     0      17.179  16.391  11.413  0.00  0.00     0.026 A 
HETATM   21  C   MK1     0      17.895  15.217  10.717  0.00  0.00     0.120 A 
HETATM   22  N   MK1     0      18.752  15.473   9.463  0.00  0.00    -0.295 NA
HETATM   23  C   MK1     0      18.893  16.902   8.906  0.00  0.00     0.122 A 
ENDBRANCH  17  18
ENDBRANCH   8  17
ENDBRANCH   3   4
ENDBRANCH   2   3
BRANCH   2  24
HETATM   24  C   MK1     0      13.105  24.774   5.598  0.00  0.00     0.061 C 
BRANCH  24  25
HETATM   25  C   MK1     0      11.676  24.881   5.034  0.00  0.00     0.002 C 
BRANCH  25  26
HETATM   26  C   MK1     0      10.523  25.352   5.941  0.00  0.00     0.205 C 
HETATM   27  O   MK1     0       9.969  24.414   7.030  0.00  0.00    -0.170 OA
HETATM   28  N   MK1     0       9.924  26.759   5.760  0.00  0.00    -0.219 NA
BRANCH  28  29
HETATM   29  C   MK1     0       8.773  27.228   6.667  0.00  0.00     0.100 A 
HETATM   30  C   MK1     0       8.918  27.822   8.071  0.00  0.00     0.130 A 
HETATM   31  O   MK1     0      10.242  28.053   8.822  0.00  0.00    -0.193 OA
HETATM   32  C   MK1     0       7.518  28.145   8.598  0.00  0.00     0.077 A 
HETATM   33  C   MK1     0       6.502  27.753   7.522  0.00  0.00    -0.040 A 
HETATM   34  C   MK1     0       7.282  27.184   6.322  0.00  0.00    -0.010 A 
HETATM   35  C   MK1     0       4.965  27.838   7.472  0.00  0.00     0.022 A 
HETATM   36  C   MK1     0       6.524  26.699   5.072  0.00  0.00     0.027 A 
HETATM   37  C   MK1     0       4.987  26.783   5.021  0.00  0.00     0.005 A 
HETATM   38  C   MK1     0       4.207  27.353   6.221  0.00  0.00     0.005 A 
ENDBRANCH  28  29
ENDBRANCH  25  26
BRANCH  25  39
HETATM   39  C   MK1     0      11.398  24.519   3.563  0.00  0.00     0.026 C 
BRANCH  39  40
HETATM   40  C   MK1     0       9.949  24.467   3.043  0.00  0.00     0.004 A 
HETATM   41  C   MK1     0       9.045  23.273   3.402  0.00  0.00     0.000 A 
HETATM   42  C   MK1     0       7.596  23.221   2.882  0.00  0.00     0.000 A 
HETATM   43  C   MK1     0       7.052  24.363   2.003  0.00  0.00     0.000 A 
HETATM   44  C   MK1     0       7.957  25.557   1.644  0.00  0.00     0.000 A 
HETATM   45  C   MK1     0       9.405  25.608   2.164  0.00  0.00     0.000 A 
ENDBRANCH  39  40
ENDBRANCH  25  39
ENDBRANCH  24  25
ENDBRANCH   2  24
TORSDOF 10
ENDMDL
MODEL 4
REMARK VINA RESULT:    -9.923      2.613     11.273
REMARK INTER + INTRA:         -17.966
REMARK INTER:                 -15.986
REMARK INTRA:                  -1.981
REMARK UNBOUND:                -2.242
REMARK  10 active torsions:
REMARK  status: ('A' for Active; 'I' for Inactive)
REMARK    1  A    between atoms: N_5  and  C_13 
REMARK    2  A    between atoms: N_6  and  C_21 
REMARK    3  A    between atoms: N_7  and  C_18 
REMARK       I    between atoms: N_7  and  C_24 
REMARK    4  A    between atoms: C_13  and  C_15 
REMARK    5  A    between atoms: C_15  and  C_16 
REMARK    6  A    between atoms: C_16  and  C_17 
REMARK    7  A    between atoms: C_17  and  C_24 
REMARK    8  A    between atoms: C_17  and  C_25 
REMARK    9  A    between atoms: C_21  and  C_28 
REMARK   10  A    between atoms: C_25  and  C_30 
ROOT
HETATM    1  O   MK1     0      13.237  21.693   7.363  0.00  0.00    -0.221 OA
HETATM    2  C   MK1     0      14.355  22.721   7.617  0.00  0.00     0.178 C 
ENDROOT
BRANCH   2   3
HETATM    3  C   MK1     0      15.777  22.459   7.086  0.00  0.00     0.135 C 
BRANCH   3   4
HETATM    4  N   MK1     0      16.586  21.260   7.612  0.00  0.00    -0.339 N 
HETATM    5  C   MK1     0      17.069  20.170   6.638  0.00  0.00     0.123 A 
HETATM    6  C   MK1     0      17.879  18.970   7.164  0.00  0.00     0.108 A 
HETATM    7  C   MK1     0      16.742  20.278   5.137  0.00  0.00     0.227 A 
HETATM    8  N   MK1     0      18.207  18.861   8.665  0.00  0.00    -0.339 N 
HETATM    9  C   MK1     0      17.945  18.555   6.117  0.00  0.00    -0.089 A 
HETATM   10  C   MK1     0      17.724  19.952   9.639  0.00  0.00     0.126 A 
HETATM   11  C   MK1     0      16.914  21.151   9.113  0.00  0.00     0.126 A 
HETATM   12  C   MK1     0      18.034  17.989   4.689  0.00  0.00     0.134 A 
HETATM   13  N   MK1     0      17.224  19.188   4.162  0.00  0.00    -0.237 NA
HETATM   14  C   MK1     0      18.124  17.422   3.259  0.00  0.00     0.037 C 
HETATM   15  C   MK1     0      18.844  16.789   5.214  0.00  0.00     0.037 C 
HETATM   16  O   MK1     0      15.932  21.478   4.611  0.00  0.00    -0.168 OA
BRANCH   8  17
HETATM   17  C   MK1     0      19.017  17.661   9.191  0.00  0.00     0.104 C 
BRANCH  17  18
HETATM   18  C   MK1     0      18.779  17.138  10.619  0.00  0.00     0.046 A 
HETATM   19  C   MK1     0      17.448  16.449  10.976  0.00  0.00     0.006 A 
HETATM   20  C   MK1     0      17.209  15.926  12.404  0.00  0.00     0.026 A 
HETATM   21  C   MK1     0      18.302  16.092  13.477  0.00  0.00     0.120 A 
HETATM   22  N   MK1     0      19.633  16.782  13.121  0.00  0.00    -0.295 NA
HETATM   23  C   MK1     0      19.870  17.305  11.692  0.00  0.00     0.122 A 
ENDBRANCH  17  18
ENDBRANCH   8  17
ENDBRANCH   3   4
ENDBRANCH   2   3
BRANCH   2  24
HETATM   24  C   MK1     0      14.052  24.009   8.403  0.00  0.00     0.061 C 
BRANCH  24  25
HETATM   25  C   MK1     0      12.912  24.939   7.947  0.00  0.00     0.002 C 
BRANCH  25  26
HETATM   26  C   MK1     0      12.380  24.856   6.504  0.00  0.00     0.205 C 
HETATM   27  O   MK1     0      13.060  25.668   5.386  0.00  0.00    -0.170 OA
HETATM   28  N   MK1     0      11.170  23.961   6.180  0.00  0.00    -0.219 NA
BRANCH  28  29
HETATM   29  C   MK1     0      10.639  23.878   4.737  0.00  0.00     0.100 A 
HETATM   30  C   MK1     0      11.284  23.103   3.584  0.00  0.00     0.130 A 
HETATM   31  O   MK1     0      12.578  22.271   3.666  0.00  0.00    -0.193 OA
HETATM   32  C   MK1     0      10.420  23.299   2.337  0.00  0.00     0.077 A 
HETATM   33  C   MK1     0       9.237  24.195   2.713  0.00  0.00    -0.040 A 
HETATM   34  C   MK1     0       9.373  24.555   4.205  0.00  0.00    -0.010 A 
HETATM   35  C   MK1     0       8.048  24.736   1.896  0.00  0.00     0.022 A 
HETATM   36  C   MK1     0       8.321  25.454   4.879  0.00  0.00     0.027 A 
HETATM   37  C   MK1     0       7.132  25.995   4.062  0.00  0.00     0.005 A 
HETATM   38  C   MK1     0       6.996  25.636   2.571  0.00  0.00     0.005 A 
ENDBRANCH  28  29
ENDBRANCH  25  26
BRANCH  25  39
HETATM   39  C   MK1     0      12.304  25.953   8.934  0.00  0.00     0.026 C 
BRANCH  39  40
HETATM   40  C   MK1     0      10.806  26.304   8.852  0.00  0.00     0.004 A 
HETATM   41  C   MK1     0       9.746  25.201   9.023  0.00  0.00     0.000 A 
HETATM   42  C   MK1     0       8.249  25.551   8.940  0.00  0.00     0.000 A 
HETATM   43  C   MK1     0       7.811  27.006   8.687  0.00  0.00     0.000 A 
HETATM   44  C   MK1     0       8.872  28.111   8.516  0.00  0.00     0.000 A 
HETATM   45  C   MK1     0      10.369  27.759   8.598  0.00  0.00     0.000 A 
ENDBRANCH  39  40
ENDBRANCH  25  39
ENDBRANCH  24  25
ENDBRANCH   2  24
TORSDOF 10
ENDMDL
MODEL 5
REMARK VINA RESULT:    -9.853      2.368     11.122
REMARK INTER + INTRA:         -17.855
REMARK INTER:                 -16.376
REMARK INTRA:                  -1.479
REMARK UNBOUND:                -2.242
REMARK  10 active torsions:
REMARK  status: ('A' for Active; 'I' for Inactive)
REMARK    1  A    between atoms: N_5  and  C_13 
REMARK    2  A    between atoms: N_6  and  C_21 
REMARK    3  A    between atoms: N_7  and  C_18 
REMARK       I    between atoms: N_7  and  C_24 
REMARK    4  A    between atoms: C_13  and  C_15 
REMARK    5  A    between atoms: C_15  and  C_16 
REMARK    6  A    between atoms: C_16  and  C_17 
REMARK    7  A    between atoms: C_17  and  C_24 
REMARK    8  A    between atoms: C_17  and  C_25 
REMARK    9  A    between atoms: C_21  and  C_28 
REMARK   10  A    between atoms: C_25  and  C_30 
ROOT
HETATM    1  O   MK1     0      12.178  21.402   6.835  0.00  0.00    -0.221 OA
HETATM    2  C   MK1     0      12.402  22.172   5.521  0.00  0.00     0.178 C 
ENDROOT
BRANCH   2   3
HETATM    3  C   MK1     0      13.833  22.446   5.023  0.00  0.00     0.135 C 
BRANCH   3   4
HETATM    4  N   MK1     0      15.028  21.745   5.694  0.00  0.00    -0.339 N 
HETATM    5  C   MK1     0      15.795  20.642   4.942  0.00  0.00     0.123 A 
HETATM    6  C   MK1     0      16.991  19.939   5.613  0.00  0.00     0.108 A 
HETATM    7  C   MK1     0      15.367  20.239   3.518  0.00  0.00     0.227 A 
HETATM    8  N   MK1     0      17.419  20.342   7.037  0.00  0.00    -0.339 N 
HETATM    9  C   MK1     0      17.133  19.303   4.693  0.00  0.00    -0.089 A 
HETATM   10  C   MK1     0      16.652  21.445   7.789  0.00  0.00     0.126 A 
HETATM   11  C   MK1     0      15.457  22.147   7.118  0.00  0.00     0.126 A 
HETATM   12  C   MK1     0      17.329  18.434   3.437  0.00  0.00     0.134 A 
HETATM   13  N   MK1     0      16.133  19.136   2.766  0.00  0.00    -0.237 NA
HETATM   14  C   MK1     0      17.524  17.565   2.180  0.00  0.00     0.037 C 
HETATM   15  C   MK1     0      18.524  17.732   4.108  0.00  0.00     0.037 C 
HETATM   16  O   MK1     0      14.171  20.941   2.848  0.00  0.00    -0.168 OA
BRANCH   8  17
HETATM   17  C   MK1     0      18.615  19.640   7.707  0.00  0.00     0.104 C 
BRANCH  17  18
HETATM   18  C   MK1     0      18.372  18.513   8.729  0.00  0.00     0.046 A 
HETATM   19  C   MK1     0      17.598  18.805  10.028  0.00  0.00     0.006 A 
HETATM   20  C   MK1     0      17.355  17.679  11.050  0.00  0.00     0.026 A 
HETATM   21  C   MK1     0      17.886  16.260  10.773  0.00  0.00     0.120 A 
HETATM   22  N   MK1     0      18.660  15.968   9.473  0.00  0.00    -0.295 NA
HETATM   23  C   MK1     0      18.903  17.095   8.452  0.00  0.00     0.122 A 
ENDBRANCH  17  18
ENDBRANCH   8  17
ENDBRANCH   3   4
ENDBRANCH   2   3
BRANCH   2  24
HETATM   24  C   MK1     0      11.195  22.669   4.704  0.00  0.00     0.061 C 
BRANCH  24  25
HETATM   25  C   MK1     0      10.688  24.113   4.879  0.00  0.00     0.002 C 
BRANCH  25  26
HETATM   26  C   MK1     0       9.387  24.561   4.187  0.00  0.00     0.205 C 
HETATM   27  O   MK1     0       8.985  26.048   4.193  0.00  0.00    -0.170 OA
HETATM   28  N   MK1     0       8.488  23.524   3.488  0.00  0.00    -0.219 NA
BRANCH  28  29
HETATM   29  C   MK1     0       7.188  23.972   2.797  0.00  0.00     0.100 A 
HETATM   30  C   MK1     0       7.081  24.985   1.653  0.00  0.00     0.130 A 
HETATM   31  O   MK1     0       8.256  25.731   0.993  0.00  0.00    -0.193 OA
HETATM   32  C   MK1     0       5.604  25.125   1.279  0.00  0.00     0.077 A 
HETATM   33  C   MK1     0       4.792  24.201   2.190  0.00  0.00    -0.040 A 
HETATM   34  C   MK1     0       5.777  23.485   3.133  0.00  0.00    -0.010 A 
HETATM   35  C   MK1     0       3.282  23.913   2.290  0.00  0.00     0.022 A 
HETATM   36  C   MK1     0       5.251  22.481   4.176  0.00  0.00     0.027 A 
HETATM   37  C   MK1     0       3.742  22.192   4.276  0.00  0.00     0.005 A 
HETATM   38  C   MK1     0       2.757  22.908   3.333  0.00  0.00     0.005 A 
ENDBRANCH  28  29
ENDBRANCH  25  26
BRANCH  25  39
HETATM   39  C   MK1     0      11.481  25.109   5.745  0.00  0.00     0.026 C 
BRANCH  39  40
HETATM   40  C   MK1     0      11.103  25.314   7.224  0.00  0.00     0.004 A 
HETATM   41  C   MK1     0      12.173  25.758   8.238  0.00  0.00     0.000 A 
HETATM   42  C   MK1     0      11.795  25.963   9.717  0.00  0.00     0.000 A 
HETATM   43  C   MK1     0      10.347  25.724  10.182  0.00  0.00     0.000 A 
HETATM   44  C   MK1     0       9.276  25.279   9.167  0.00  0.00     0.000 A 
HETATM   45  C   MK1     0       9.655  25.075   7.689  0.00  0.00     0.000 A 
ENDBRANCH  39  40
ENDBRANCH  25  39
ENDBRANCH  24  25
ENDBRANCH   2  24
TORSDOF 10
ENDMDL
MODEL 6
REMARK VINA RESULT:    -9.800      2.426     11.760
REMARK INTER + INTRA:         -17.772
REMARK INTER:                 -15.513
REMARK INTRA:                  -2.258
REMARK UNBOUND:                -2.242
REMARK  10 active torsions:
REMARK  status: ('A' for Active; 'I' for Inactive)
REMARK    1  A    between atoms: N_5  and  C_13 
REMARK    2  A    between atoms: N_6  and  C_21 
REMARK    3  A    between atoms: N_7  and  C_18 
REMARK       I    between atoms: N_7  and  C_24 
REMARK    4  A    between atoms: C_13  and  C_15 
REMARK    5  A    between atoms: C_15  and  C_16 
REMARK    6  A    between atoms: C_16  and  C_17 
REMARK    7  A    between atoms: C_17  and  C_24 
REMARK    8  A    between atoms: C_17  and  C_25 
REMARK    9  A    between atoms: C_21  and  C_28 
REMARK   10  A    between atoms: C_25  and  C_30 
ROOT
HETATM    1  O   MK1     0      15.352  23.579   4.929  0.00  0.00    -0.221 OA
HETATM    2  C   MK1     0      14.397  22.458   4.480  0.00  0.00     0.178 C 
ENDROOT
BRANCH   2   3
HETATM    3  C   MK1     0      14.408  21.101   5.208  0.00  0.00     0.135 C 
BRANCH   3   4
HETATM    4  N   MK1     0      15.448  20.826   6.309  0.00  0.00    -0.339 N 
HETATM    5  C   MK1     0      16.467  19.684   6.138  0.00  0.00     0.123 A 
HETATM    6  C   MK1     0      17.508  19.409   7.239  0.00  0.00     0.108 A 
HETATM    7  C   MK1     0      16.445  18.816   4.866  0.00  0.00     0.227 A 
HETATM    8  N   MK1     0      17.530  20.277   8.512  0.00  0.00    -0.339 N 
HETATM    9  C   MK1     0      17.929  18.559   6.629  0.00  0.00    -0.089 A 
HETATM   10  C   MK1     0      16.511  21.419   8.682  0.00  0.00     0.126 A 
HETATM   11  C   MK1     0      15.471  21.693   7.581  0.00  0.00     0.126 A 
HETATM   12  C   MK1     0      18.504  17.399   5.796  0.00  0.00     0.134 A 
HETATM   13  N   MK1     0      17.463  17.673   4.694  0.00  0.00    -0.237 NA
HETATM   14  C   MK1     0      19.080  16.238   4.962  0.00  0.00     0.037 C 
HETATM   15  C   MK1     0      19.546  17.124   6.897  0.00  0.00     0.037 C 
HETATM   16  O   MK1     0      15.404  19.091   3.765  0.00  0.00    -0.168 OA
BRANCH   8  17
HETATM   17  C   MK1     0      18.571  20.001   9.613  0.00  0.00     0.104 C 
BRANCH  17  18
HETATM   18  C   MK1     0      18.359  18.839  10.600  0.00  0.00     0.046 A 
HETATM   19  C   MK1     0      19.462  18.477  11.612  0.00  0.00     0.006 A 
HETATM   20  C   MK1     0      19.250  17.316  12.600  0.00  0.00     0.026 A 
HETATM   21  C   MK1     0      17.934  16.515  12.577  0.00  0.00     0.120 A 
HETATM   22  N   MK1     0      16.831  16.877  11.565  0.00  0.00    -0.295 NA
HETATM   23  C   MK1     0      17.043  18.039  10.577  0.00  0.00     0.122 A 
ENDBRANCH  17  18
ENDBRANCH   8  17
ENDBRANCH   3   4
ENDBRANCH   2   3
BRANCH   2  24
HETATM   24  C   MK1     0      13.432  22.692   3.304  0.00  0.00     0.061 C 
BRANCH  24  25
HETATM   25  C   MK1     0      12.056  23.337   3.553  0.00  0.00     0.002 C 
BRANCH  25  26
HETATM   26  C   MK1     0      11.670  23.804   4.969  0.00  0.00     0.205 C 
HETATM   27  O   MK1     0      11.065  22.803   5.971  0.00  0.00    -0.170 OA
HETATM   28  N   MK1     0      11.888  25.272   5.383  0.00  0.00    -0.219 NA
BRANCH  28  29
HETATM   29  C   MK1     0      11.502  25.738   6.798  0.00  0.00     0.100 A 
HETATM   30  C   MK1     0      12.294  25.469   8.081  0.00  0.00     0.130 A 
HETATM   31  O   MK1     0      13.616  24.684   8.180  0.00  0.00    -0.193 OA
HETATM   32  C   MK1     0      11.543  26.115   9.248  0.00  0.00     0.077 A 
HETATM   33  C   MK1     0      10.285  26.786   8.691  0.00  0.00    -0.040 A 
HETATM   34  C   MK1     0      10.259  26.551   7.169  0.00  0.00    -0.010 A 
HETATM   35  C   MK1     0       9.153  27.582   9.367  0.00  0.00     0.022 A 
HETATM   36  C   MK1     0       9.102  27.113   6.323  0.00  0.00     0.027 A 
HETATM   37  C   MK1     0       7.970  27.910   6.998  0.00  0.00     0.005 A 
HETATM   38  C   MK1     0       7.995  28.144   8.520  0.00  0.00     0.005 A 
ENDBRANCH  28  29
ENDBRANCH  25  26
BRANCH  25  39
HETATM   39  C   MK1     0      11.066  23.516   2.387  0.00  0.00     0.026 C 
BRANCH  39  40
HETATM   40  C   MK1     0       9.610  23.932   2.671  0.00  0.00     0.004 A 
HETATM   41  C   MK1     0       8.566  22.868   3.055  0.00  0.00     0.000 A 
HETATM   42  C   MK1     0       7.110  23.284   3.338  0.00  0.00     0.000 A 
HETATM   43  C   MK1     0       6.699  24.765   3.237  0.00  0.00     0.000 A 
HETATM   44  C   MK1     0       7.745  25.830   2.853  0.00  0.00     0.000 A 
HETATM   45  C   MK1     0       9.199  25.413   2.570  0.00  0.00     0.000 A 
ENDBRANCH  39  40
ENDBRANCH  25  39
ENDBRANCH  24  25
ENDBRANCH   2  24
TORSDOF 10
ENDMDL
MODEL 7
REMARK VINA RESULT:    -9.094      2.630     11.548
REMARK INTER + INTRA:         -16.653
REMARK INTER:                 -14.403
REMARK INTRA:                  -2.250
REMARK UNBOUND:                -2.242
REMARK  10 active torsions:
REMARK  status: ('A' for Active; 'I' for Inactive)
REMARK    1  A    between atoms: N_5  and  C_13 
REMARK    2  A    between atoms: N_6  and  C_21 
REMARK    3  A    between atoms: N_7  and  C_18 
REMARK       I    between atoms: N_7  and  C_24 
REMARK    4  A    between atoms: C_13  and  C_15 
REMARK    5  A    between atoms: C_15  and  C_16 
REMARK    6  A    between atoms: C_16  and  C_17 
REMARK    7  A    between atoms: C_17  and  C_24 
REMARK    8  A    between atoms: C_17  and  C_25 
REMARK    9  A    between atoms: C_21  and  C_28 
REMARK   10  A    between atoms: C_25  and  C_30 
ROOT
HETATM    1  O   MK1     0      15.516  23.262   4.577  0.00  0.00    -0.221 OA
HETATM    2  C   MK1     0      14.339  22.305   4.314  0.00  0.00     0.178 C 
ENDROOT
BRANCH   2   3
HETATM    3  C   MK1     0      14.251  20.966   5.070  0.00  0.00     0.135 C 
BRANCH   3   4
HETATM    4  N   MK1     0      15.514  20.105   5.258  0.00  0.00    -0.339 N 
HETATM    5  C   MK1     0      16.193  20.025   6.638  0.00  0.00     0.123 A 
HETATM    6  C   MK1     0      17.456  19.164   6.826  0.00  0.00     0.108 A 
HETATM    7  C   MK1     0      15.609  20.806   7.830  0.00  0.00     0.227 A 
HETATM    8  N   MK1     0      18.040  18.383   5.634  0.00  0.00    -0.339 N 
HETATM    9  C   MK1     0      17.496  19.460   7.913  0.00  0.00    -0.089 A 
HETATM   10  C   MK1     0      17.361  18.463   4.254  0.00  0.00     0.126 A 
HETATM   11  C   MK1     0      16.098  19.324   4.066  0.00  0.00     0.126 A 
HETATM   12  C   MK1     0      17.551  19.865   9.398  0.00  0.00     0.134 A 
HETATM   13  N   MK1     0      16.288  20.726   9.210  0.00  0.00    -0.237 NA
HETATM   14  C   MK1     0      17.605  20.270  10.883  0.00  0.00     0.037 C 
HETATM   15  C   MK1     0      18.814  19.004   9.587  0.00  0.00     0.037 C 
HETATM   16  O   MK1     0      14.346  21.667   7.641  0.00  0.00    -0.168 OA
BRANCH   8  17
HETATM   17  C   MK1     0      19.303  17.522   5.823  0.00  0.00     0.104 C 
BRANCH  17  18
HETATM   18  C   MK1     0      19.180  16.080   6.352  0.00  0.00     0.046 A 
HETATM   19  C   MK1     0      18.885  15.830   7.842  0.00  0.00     0.006 A 
HETATM   20  C   MK1     0      18.762  14.390   8.372  0.00  0.00     0.026 A 
HETATM   21  C   MK1     0      18.935  13.198   7.411  0.00  0.00     0.120 A 
HETATM   22  N   MK1     0      19.231  13.449   5.920  0.00  0.00    -0.295 NA
HETATM   23  C   MK1     0      19.353  14.890   5.391  0.00  0.00     0.122 A 
ENDBRANCH  17  18
ENDBRANCH   8  17
ENDBRANCH   3   4
ENDBRANCH   2   3
BRANCH   2  24
HETATM   24  C   MK1     0      13.248  22.686   3.296  0.00  0.00     0.061 C 
BRANCH  24  25
HETATM   25  C   MK1     0      11.799  22.908   3.767  0.00  0.00     0.002 C 
BRANCH  25  26
HETATM   26  C   MK1     0      11.524  23.519   5.154  0.00  0.00     0.205 C 
HETATM   27  O   MK1     0      11.131  22.607   6.332  0.00  0.00    -0.170 OA
HETATM   28  N   MK1     0      11.643  25.040   5.364  0.00  0.00    -0.219 NA
BRANCH  28  29
HETATM   29  C   MK1     0      11.369  25.650   6.750  0.00  0.00     0.100 A 
HETATM   30  C   MK1     0      12.278  25.538   7.977  0.00  0.00     0.130 A 
HETATM   31  O   MK1     0      13.626  24.797   8.040  0.00  0.00    -0.193 OA
HETATM   32  C   MK1     0      11.613  26.293   9.132  0.00  0.00     0.077 A 
HETATM   33  C   MK1     0      10.291  26.873   8.622  0.00  0.00    -0.040 A 
HETATM   34  C   MK1     0      10.140  26.473   7.143  0.00  0.00    -0.010 A 
HETATM   35  C   MK1     0       9.199  27.715   9.308  0.00  0.00     0.022 A 
HETATM   36  C   MK1     0       8.896  26.916   6.349  0.00  0.00     0.027 A 
HETATM   37  C   MK1     0       7.804  27.758   7.035  0.00  0.00     0.005 A 
HETATM   38  C   MK1     0       7.955  28.158   8.514  0.00  0.00     0.005 A 
ENDBRANCH  28  29
ENDBRANCH  25  26
BRANCH  25  39
HETATM   39  C   MK1     0      10.623  22.518   2.852  0.00  0.00     0.026 C 
BRANCH  39  40
HETATM   40  C   MK1     0       9.463  23.506   2.627  0.00  0.00     0.004 A 
HETATM   41  C   MK1     0       9.756  24.952   2.186  0.00  0.00     0.000 A 
HETATM   42  C   MK1     0       8.596  25.939   1.961  0.00  0.00     0.000 A 
HETATM   43  C   MK1     0       7.141  25.480   2.176  0.00  0.00     0.000 A 
HETATM   44  C   MK1     0       6.848  24.033   2.617  0.00  0.00     0.000 A 
HETATM   45  C   MK1     0       8.008  23.047   2.842  0.00  0.00     0.000 A 
ENDBRANCH  39  40
ENDBRANCH  25  39
ENDBRANCH  24  25
ENDBRANCH   2  24
TORSDOF 10
ENDMDL
MODEL 8
REMARK VINA RESULT:    -8.931      4.956      8.844
REMARK INTER + INTRA:         -16.394
REMARK INTER:                 -14.298
REMARK INTRA:                  -2.096
REMARK UNBOUND:                -2.242
REMARK  10 active torsions:
REMARK  status: ('A' for Active; 'I' for Inactive)
REMARK    1  A    between atoms: N_5  and  C_13 
REMARK    2  A    between atoms: N_6  and  C_21 
REMARK    3  A    between atoms: N_7  and  C_18 
REMARK       I    between atoms: N_7  and  C_24 
REMARK    4  A    between atoms: C_13  and  C_15 
REMARK    5  A    between atoms: C_15  and  C_16 
REMARK    6  A    between atoms: C_16  and  C_17 
REMARK    7  A    between atoms: C_17  and  C_24 
REMARK    8  A    between atoms: C_17  and  C_25 
REMARK    9  A    between atoms: C_21  and  C_28 
REMARK   10  A    between atoms: C_25  and  C_30 
ROOT
HETATM    1  O   MK1     0      16.247  19.144  10.305  0.00  0.00    -0.221 OA
HETATM    2  C   MK1     0      17.676  19.524   9.873  0.00  0.00     0.178 C 
ENDROOT
BRANCH   2   3
HETATM    3  C   MK1     0      17.911  20.226   8.523  0.00  0.00     0.135 C 
BRANCH   3   4
HETATM    4  N   MK1     0      16.854  21.198   7.967  0.00  0.00    -0.339 N 
HETATM    5  C   MK1     0      16.262  20.972   6.563  0.00  0.00     0.123 A 
HETATM    6  C   MK1     0      15.205  21.944   6.006  0.00  0.00     0.108 A 
HETATM    7  C   MK1     0      16.728  19.774   5.714  0.00  0.00     0.227 A 
HETATM    8  N   MK1     0      14.739  23.142   6.855  0.00  0.00    -0.339 N 
HETATM    9  C   MK1     0      15.152  21.342   5.055  0.00  0.00    -0.089 A 
HETATM   10  C   MK1     0      15.330  23.368   8.259  0.00  0.00     0.126 A 
HETATM   11  C   MK1     0      16.387  22.396   8.814  0.00  0.00     0.126 A 
HETATM   12  C   MK1     0      15.080  20.520   3.755  0.00  0.00     0.134 A 
HETATM   13  N   MK1     0      16.137  19.547   4.310  0.00  0.00    -0.237 NA
HETATM   14  C   MK1     0      15.008  19.697   2.454  0.00  0.00     0.037 C 
HETATM   15  C   MK1     0      14.023  21.492   3.198  0.00  0.00     0.037 C 
HETATM   16  O   MK1     0      17.786  18.802   6.271  0.00  0.00    -0.168 OA
BRANCH   8  17
HETATM   17  C   MK1     0      13.682  24.114   6.298  0.00  0.00     0.104 C 
BRANCH  17  18
HETATM   18  C   MK1     0      12.530  24.597   7.199  0.00  0.00     0.046 A 
HETATM   19  C   MK1     0      12.807  25.606   8.329  0.00  0.00     0.006 A 
HETATM   20  C   MK1     0      11.656  26.089   9.230  0.00  0.00     0.026 A 
HETATM   21  C   MK1     0      10.226  25.563   9.001  0.00  0.00     0.120 A 
HETATM   22  N   MK1     0       9.949  24.554   7.871  0.00  0.00    -0.295 NA
HETATM   23  C   MK1     0      11.101  24.071   6.970  0.00  0.00     0.122 A 
ENDBRANCH  17  18
ENDBRANCH   8  17
ENDBRANCH   3   4
ENDBRANCH   2   3
BRANCH   2  24
HETATM   24  C   MK1     0      18.870  19.202  10.791  0.00  0.00     0.061 C 
BRANCH  24  25
HETATM   25  C   MK1     0      19.009  17.799  11.410  0.00  0.00     0.002 C 
BRANCH  25  26
HETATM   26  C   MK1     0      18.732  16.549  10.554  0.00  0.00     0.205 C 
HETATM   27  O   MK1     0      17.332  15.907  10.560  0.00  0.00    -0.170 OA
HETATM   28  N   MK1     0      19.855  15.940   9.693  0.00  0.00    -0.219 NA
BRANCH  28  29
HETATM   29  C   MK1     0      19.578  14.691   8.839  0.00  0.00     0.100 A 
HETATM   30  C   MK1     0      19.443  14.656   7.313  0.00  0.00     0.130 A 
HETATM   31  O   MK1     0      19.559  15.866   6.368  0.00  0.00    -0.193 OA
HETATM   32  C   MK1     0      19.171  13.210   6.893  0.00  0.00     0.077 A 
HETATM   33  C   MK1     0      19.138  12.345   8.155  0.00  0.00    -0.040 A 
HETATM   34  C   MK1     0      19.391  13.265   9.364  0.00  0.00    -0.010 A 
HETATM   35  C   MK1     0      18.910  10.837   8.370  0.00  0.00     0.022 A 
HETATM   36  C   MK1     0      19.416  12.677  10.787  0.00  0.00     0.027 A 
HETATM   37  C   MK1     0      19.189  11.169  11.002  0.00  0.00     0.005 A 
HETATM   38  C   MK1     0      18.935  10.249   9.793  0.00  0.00     0.005 A 
ENDBRANCH  28  29
ENDBRANCH  25  26
BRANCH  25  39
HETATM   39  C   MK1     0      19.424  17.646  12.885  0.00  0.00     0.026 C 
BRANCH  39  40
HETATM   40  C   MK1     0      19.377  16.261  13.558  0.00  0.00     0.004 A 
HETATM   41  C   MK1     0      18.064  15.752  14.181  0.00  0.00     0.000 A 
HETATM   42  C   MK1     0      18.016  14.367  14.854  0.00  0.00     0.000 A 
HETATM   43  C   MK1     0      19.283  13.492  14.904  0.00  0.00     0.000 A 
HETATM   44  C   MK1     0      20.597  14.002  14.281  0.00  0.00     0.000 A 
HETATM   45  C   MK1     0      20.643  15.386  13.609  0.00  0.00     0.000 A 
ENDBRANCH  39  40
ENDBRANCH  25  39
ENDBRANCH  24  25
ENDBRANCH   2  24
TORSDOF 10
ENDMDL
MODEL 9
REMARK VINA RESULT:    -8.915      1.589      4.238
REMARK INTER + INTRA:         -16.369
REMARK INTER:                 -14.742
REMARK INTRA:                  -1.627
REMARK UNBOUND:                -2.242
REMARK  10 active torsions:
REMARK  status: ('A' for Active; 'I' for Inactive)
REMARK    1  A    between atoms: N_5  and  C_13 
REMARK    2  A    between atoms: N_6  and  C_21 
REMARK    3  A    between atoms: N_7  and  C_18 
REMARK       I    between atoms: N_7  and  C_24 
REMARK    4  A    between atoms: C_13  and  C_15 
REMARK    5  A    between atoms: C_15  and  C_16 
REMARK    6  A    between atoms: C_16  and  C_17 
REMARK    7  A    between atoms: C_17  and  C_24 
REMARK    8  A    between atoms: C_17  and  C_25 
REMARK    9  A    between atoms: C_21  and  C_28 
REMARK   10  A    between atoms: C_25  and  C_30 
ROOT
HETATM    1  O   MK1     0      11.292  22.420   5.520  0.00  0.00    -0.221 OA
HETATM    2  C   MK1     0      11.601  23.142   4.195  0.00  0.00     0.178 C 
ENDROOT
BRANCH   2   3
HETATM    3  C   MK1     0      11.236  24.629   4.026  0.00  0.00     0.135 C 
BRANCH   3   4
HETATM    4  N   MK1     0       9.760  25.065   4.038  0.00  0.00    -0.339 N 
HETATM    5  C   MK1     0       9.202  25.861   5.232  0.00  0.00     0.123 A 
HETATM    6  C   MK1     0       7.725  26.298   5.245  0.00  0.00     0.108 A 
HETATM    7  C   MK1     0      10.121  26.220   6.415  0.00  0.00     0.227 A 
HETATM    8  N   MK1     0       6.806  25.939   4.062  0.00  0.00    -0.339 N 
HETATM    9  C   MK1     0       7.878  26.786   6.250  0.00  0.00    -0.089 A 
HETATM   10  C   MK1     0       7.364  25.143   2.867  0.00  0.00     0.126 A 
HETATM   11  C   MK1     0       8.841  24.706   2.855  0.00  0.00     0.126 A 
HETATM   12  C   MK1     0       8.086  27.452   7.622  0.00  0.00     0.134 A 
HETATM   13  N   MK1     0       9.563  27.016   7.610  0.00  0.00    -0.237 NA
HETATM   14  C   MK1     0       8.294  28.119   8.995  0.00  0.00     0.037 C 
HETATM   15  C   MK1     0       6.609  27.889   7.634  0.00  0.00     0.037 C 
HETATM   16  O   MK1     0      11.597  25.783   6.402  0.00  0.00    -0.168 OA
BRANCH   8  17
HETATM   17  C   MK1     0       5.329  26.376   4.075  0.00  0.00     0.104 C 
BRANCH  17  18
HETATM   18  C   MK1     0       4.215  25.330   3.880  0.00  0.00     0.046 A 
HETATM   19  C   MK1     0       2.919  25.715   3.142  0.00  0.00     0.006 A 
HETATM   20  C   MK1     0       1.805  24.671   2.947  0.00  0.00     0.026 A 
HETATM   21  C   MK1     0       1.987  23.240   3.489  0.00  0.00     0.120 A 
HETATM   22  N   MK1     0       3.283  22.855   4.226  0.00  0.00    -0.295 NA
HETATM   23  C   MK1     0       4.397  23.901   4.421  0.00  0.00     0.122 A 
ENDBRANCH  17  18
ENDBRANCH   8  17
ENDBRANCH   3   4
ENDBRANCH   2   3
BRANCH   2  24
HETATM   24  C   MK1     0      12.274  22.378   3.040  0.00  0.00     0.061 C 
BRANCH  24  25
HETATM   25  C   MK1     0      13.660  21.738   3.244  0.00  0.00     0.002 C 
BRANCH  25  26
HETATM   26  C   MK1     0      14.502  22.103   4.481  0.00  0.00     0.205 C 
HETATM   27  O   MK1     0      15.590  23.187   4.378  0.00  0.00    -0.170 OA
HETATM   28  N   MK1     0      14.255  21.384   5.821  0.00  0.00    -0.219 NA
BRANCH  28  29
HETATM   29  C   MK1     0      15.097  21.748   7.057  0.00  0.00     0.100 A 
HETATM   30  C   MK1     0      14.811  22.892   8.034  0.00  0.00     0.130 A 
HETATM   31  O   MK1     0      13.630  23.878   7.952  0.00  0.00    -0.193 OA
HETATM   32  C   MK1     0      15.902  22.885   9.107  0.00  0.00     0.077 A 
HETATM   33  C   MK1     0      16.867  21.737   8.797  0.00  0.00    -0.040 A 
HETATM   34  C   MK1     0      16.366  21.031   7.523  0.00  0.00    -0.010 A 
HETATM   35  C   MK1     0      18.139  21.236   9.506  0.00  0.00     0.022 A 
HETATM   36  C   MK1     0      17.139  19.824   6.958  0.00  0.00     0.027 A 
HETATM   37  C   MK1     0      18.411  19.324   7.666  0.00  0.00     0.005 A 
HETATM   38  C   MK1     0      18.912  20.029   8.940  0.00  0.00     0.005 A 
ENDBRANCH  28  29
ENDBRANCH  25  26
BRANCH  25  39
HETATM   39  C   MK1     0      14.204  20.734   2.211  0.00  0.00     0.026 C 
BRANCH  39  40
HETATM   40  C   MK1     0      15.089  19.560   2.672  0.00  0.00     0.004 A 
HETATM   41  C   MK1     0      14.724  18.774   3.944  0.00  0.00     0.000 A 
HETATM   42  C   MK1     0      15.609  17.600   4.404  0.00  0.00     0.000 A 
HETATM   43  C   MK1     0      16.858  17.212   3.591  0.00  0.00     0.000 A 
HETATM   44  C   MK1     0      17.223  17.999   2.318  0.00  0.00     0.000 A 
HETATM   45  C   MK1     0      16.338  19.172   1.859  0.00  0.00     0.000 A 
ENDBRANCH  39  40
ENDBRANCH  25  39
ENDBRANCH  24  25
ENDBRANCH   2  24
TORSDOF 10
ENDMDL
