MODEL 1
REMARK VINA RESULT:    -6.476      0.000      0.000
REMARK INTER + INTRA:         -12.875
REMARK INTER:                 -10.261
REMARK INTRA:                  -2.613
REMARK UNBOUND:                -2.613
REMARK  10 active torsions:
REMARK  status: ('A' for Active; 'I' for Inactive)
REMARK    1  A    between atoms: N_5  and  C_13 
REMARK    2  A    between atoms: N_6  and  C_21 
REMARK    3  A    between atoms: N_7  and  C_18 
REMARK       I    between atoms: N_7  and  C_24 
REMARK    4  A    between atoms: C_13  and  C_15 
REMARK    5  A    between atoms: C_15  and  C_16 
REMARK    6  A    between atoms: C_16  and  C_17 
REMARK    7  A    between atoms: C_17  and  C_24 
REMARK    8  A    between atoms: C_17  and  C_25 
REMARK    9  A    between atoms: C_21  and  C_28 
REMARK   10  A    between atoms: C_25  and  C_30 
ROOT
HETATM    1  O   MK1     0      10.009  44.152  26.897  0.00  0.00    -0.221 OA
HETATM    2  C   MK1     0      10.984  43.598  25.841  0.00  0.00     0.178 C 
ENDROOT
BRANCH   2   3
HETATM    3  C   MK1     0      11.954  44.549  25.115  0.00  0.00     0.135 C 
BRANCH   3   4
HETATM    4  N   MK1     0      13.471  44.289  25.169  0.00  0.00    -0.339 N 
HETATM    5  C   MK1     0      14.416  45.045  24.217  0.00  0.00     0.123 A 
HETATM    6  C   MK1     0      15.934  44.785  24.270  0.00  0.00     0.108 A 
HETATM    7  C   MK1     0      13.845  46.062  23.211  0.00  0.00     0.227 A 
HETATM    8  N   MK1     0      16.505  43.768  25.276  0.00  0.00    -0.339 N 
HETATM    9  C   MK1     0      16.091  45.534  23.443  0.00  0.00    -0.089 A 
HETATM   10  C   MK1     0      15.560  43.012  26.228  0.00  0.00     0.126 A 
HETATM   11  C   MK1     0      14.043  43.272  26.175  0.00  0.00     0.126 A 
HETATM   12  C   MK1     0      16.307  46.557  22.313  0.00  0.00     0.134 A 
HETATM   13  N   MK1     0      14.790  46.818  22.259  0.00  0.00    -0.237 NA
HETATM   14  C   MK1     0      16.523  47.581  21.182  0.00  0.00     0.037 C 
HETATM   15  C   MK1     0      17.824  46.297  22.366  0.00  0.00     0.037 C 
HETATM   16  O   MK1     0      12.328  46.322  23.158  0.00  0.00    -0.168 OA
BRANCH   8  17
HETATM   17  C   MK1     0      18.022  43.508  25.330  0.00  0.00     0.104 C 
BRANCH  17  18
HETATM   18  C   MK1     0      18.689  42.619  24.263  0.00  0.00     0.046 A 
HETATM   19  C   MK1     0      18.406  41.105  24.237  0.00  0.00     0.006 A 
HETATM   20  C   MK1     0      19.072  40.215  23.171  0.00  0.00     0.026 A 
HETATM   21  C   MK1     0      20.022  40.840  22.131  0.00  0.00     0.120 A 
HETATM   22  N   MK1     0      20.305  42.354  22.158  0.00  0.00    -0.295 NA
HETATM   23  C   MK1     0      19.638  43.243  23.224  0.00  0.00     0.122 A 
ENDBRANCH  17  18
ENDBRANCH   8  17
ENDBRANCH   3   4
ENDBRANCH   2   3
BRANCH   2  24
HETATM   24  C   MK1     0      10.989  42.095  25.511  0.00  0.00     0.061 C 
BRANCH  24  25
HETATM   25  C   MK1     0      10.204  41.571  24.294  0.00  0.00     0.002 C 
BRANCH  25  26
HETATM   26  C   MK1     0       8.672  41.434  24.367  0.00  0.00     0.205 C 
HETATM   27  O   MK1     0       7.956  41.518  25.729  0.00  0.00    -0.170 OA
HETATM   28  N   MK1     0       7.855  41.215  23.080  0.00  0.00    -0.219 NA
BRANCH  28  29
HETATM   29  C   MK1     0       6.324  41.079  23.154  0.00  0.00     0.100 A 
HETATM   30  C   MK1     0       5.523  39.793  22.924  0.00  0.00     0.130 A 
HETATM   31  O   MK1     0       6.110  38.412  22.579  0.00  0.00    -0.193 OA
HETATM   32  C   MK1     0       4.038  40.121  23.097  0.00  0.00     0.077 A 
HETATM   33  C   MK1     0       3.915  41.609  23.434  0.00  0.00    -0.040 A 
HETATM   34  C   MK1     0       5.335  42.204  23.470  0.00  0.00    -0.010 A 
HETATM   35  C   MK1     0       2.696  42.509  23.716  0.00  0.00     0.022 A 
HETATM   36  C   MK1     0       5.537  43.698  23.786  0.00  0.00     0.027 A 
HETATM   37  C   MK1     0       4.318  44.597  24.067  0.00  0.00     0.005 A 
HETATM   38  C   MK1     0       2.898  44.002  24.032  0.00  0.00     0.005 A 
ENDBRANCH  28  29
ENDBRANCH  25  26
BRANCH  25  39
HETATM   39  C   MK1     0      10.950  41.183  23.004  0.00  0.00     0.026 C 
BRANCH  39  40
HETATM   40  C   MK1     0      12.413  40.705  23.074  0.00  0.00     0.004 A 
HETATM   41  C   MK1     0      13.560  41.694  22.801  0.00  0.00     0.000 A 
HETATM   42  C   MK1     0      15.023  41.217  22.871  0.00  0.00     0.000 A 
HETATM   43  C   MK1     0      15.338  39.749  23.214  0.00  0.00     0.000 A 
HETATM   44  C   MK1     0      14.189  38.759  23.488  0.00  0.00     0.000 A 
HETATM   45  C   MK1     0      12.728  39.237  23.418  0.00  0.00     0.000 A 
ENDBRANCH  39  40
ENDBRANCH  25  39
ENDBRANCH  24  25
ENDBRANCH   2  24
TORSDOF 10
ENDMDL
MODEL 2
REMARK VINA RESULT:    -6.289      2.913      9.273
REMARK INTER + INTRA:         -12.579
REMARK INTER:                  -9.109
REMARK INTRA:                  -3.469
REMARK UNBOUND:                -2.613
REMARK  10 active torsions:
REMARK  status: ('A' for Active; 'I' for Inactive)
REMARK    1  A    between atoms: N_5  and  C_13 
REMARK    2  A    between atoms: N_6  and  C_21 
REMARK    3  A    between atoms: N_7  and  C_18 
REMARK       I    between atoms: N_7  and  C_24 
REMARK    4  A    between atoms: C_13  and  C_15 
REMARK    5  A    between atoms: C_15  and  C_16 
REMARK    6  A    between atoms: C_16  and  C_17 
REMARK    7  A    between atoms: C_17  and  C_24 
REMARK    8  A    between atoms: C_17  and  C_25 
REMARK    9  A    between atoms: C_21  and  C_28 
REMARK   10  A    between atoms: C_25  and  C_30 
ROOT
HETATM    1  O   MK1     0      12.943  45.510  29.360  0.00  0.00    -0.221 OA
HETATM    2  C   MK1     0      13.715  44.872  28.190  0.00  0.00     0.178 C 
ENDROOT
BRANCH   2   3
HETATM    3  C   MK1     0      13.660  45.515  26.791  0.00  0.00     0.135 C 
BRANCH   3   4
HETATM    4  N   MK1     0      12.523  45.147  25.820  0.00  0.00    -0.339 N 
HETATM    5  C   MK1     0      12.652  45.480  24.321  0.00  0.00     0.123 A 
HETATM    6  C   MK1     0      11.515  45.112  23.349  0.00  0.00     0.108 A 
HETATM    7  C   MK1     0      13.919  46.180  23.794  0.00  0.00     0.227 A 
HETATM    8  N   MK1     0      10.249  44.412  23.877  0.00  0.00    -0.339 N 
HETATM    9  C   MK1     0      12.105  45.549  22.494  0.00  0.00    -0.089 A 
HETATM   10  C   MK1     0      10.120  44.079  25.375  0.00  0.00     0.126 A 
HETATM   11  C   MK1     0      11.256  44.447  26.346  0.00  0.00     0.126 A 
HETATM   12  C   MK1     0      12.911  46.145  21.325  0.00  0.00     0.134 A 
HETATM   13  N   MK1     0      14.049  46.513  22.296  0.00  0.00    -0.237 NA
HETATM   14  C   MK1     0      13.717  46.742  20.156  0.00  0.00     0.037 C 
HETATM   15  C   MK1     0      11.774  45.778  20.353  0.00  0.00     0.037 C 
HETATM   16  O   MK1     0      15.056  46.547  24.766  0.00  0.00    -0.168 OA
BRANCH   8  17
HETATM   17  C   MK1     0       9.112  44.045  22.904  0.00  0.00     0.104 C 
BRANCH  17  18
HETATM   18  C   MK1     0       7.938  43.172  23.387  0.00  0.00     0.046 A 
HETATM   19  C   MK1     0       8.034  41.637  23.302  0.00  0.00     0.006 A 
HETATM   20  C   MK1     0       6.862  40.764  23.784  0.00  0.00     0.026 A 
HETATM   21  C   MK1     0       5.591  41.425  24.351  0.00  0.00     0.120 A 
HETATM   22  N   MK1     0       5.495  42.960  24.436  0.00  0.00    -0.295 NA
HETATM   23  C   MK1     0       6.669  43.833  23.954  0.00  0.00     0.122 A 
ENDBRANCH  17  18
ENDBRANCH   8  17
ENDBRANCH   3   4
ENDBRANCH   2   3
BRANCH   2  24
HETATM   24  C   MK1     0      14.541  43.594  28.417  0.00  0.00     0.061 C 
BRANCH  24  25
HETATM   25  C   MK1     0      14.782  42.615  27.253  0.00  0.00     0.002 C 
BRANCH  25  26
HETATM   26  C   MK1     0      16.121  42.638  26.492  0.00  0.00     0.205 C 
HETATM   27  O   MK1     0      17.270  41.711  26.928  0.00  0.00    -0.170 OA
HETATM   28  N   MK1     0      16.311  43.589  25.295  0.00  0.00    -0.219 NA
BRANCH  28  29
HETATM   29  C   MK1     0      17.649  43.612  24.535  0.00  0.00     0.100 A 
HETATM   30  C   MK1     0      18.655  44.767  24.518  0.00  0.00     0.130 A 
HETATM   31  O   MK1     0      18.502  46.108  25.259  0.00  0.00    -0.193 OA
HETATM   32  C   MK1     0      19.837  44.356  23.637  0.00  0.00     0.077 A 
HETATM   33  C   MK1     0      19.567  42.946  23.106  0.00  0.00    -0.040 A 
HETATM   34  C   MK1     0      18.208  42.484  23.663  0.00  0.00    -0.010 A 
HETATM   35  C   MK1     0      20.378  42.016  22.185  0.00  0.00     0.022 A 
HETATM   36  C   MK1     0      17.660  41.091  23.300  0.00  0.00     0.027 A 
HETATM   37  C   MK1     0      18.472  40.160  22.379  0.00  0.00     0.005 A 
HETATM   38  C   MK1     0      19.831  40.622  21.822  0.00  0.00     0.005 A 
ENDBRANCH  28  29
ENDBRANCH  25  26
BRANCH  25  39
HETATM   39  C   MK1     0      13.685  41.612  26.849  0.00  0.00     0.026 C 
BRANCH  39  40
HETATM   40  C   MK1     0      13.668  41.022  25.426  0.00  0.00     0.004 A 
HETATM   41  C   MK1     0      12.883  41.731  24.308  0.00  0.00     0.000 A 
HETATM   42  C   MK1     0      12.866  41.140  22.885  0.00  0.00     0.000 A 
HETATM   43  C   MK1     0      13.634  39.840  22.582  0.00  0.00     0.000 A 
HETATM   44  C   MK1     0      14.419  39.131  23.702  0.00  0.00     0.000 A 
HETATM   45  C   MK1     0      14.436  39.722  25.123  0.00  0.00     0.000 A 
ENDBRANCH  39  40
ENDBRANCH  25  39
ENDBRANCH  24  25
ENDBRANCH   2  24
TORSDOF 10
ENDMDL
MODEL 3
REMARK VINA RESULT:    -6.190      3.231     12.020
REMARK INTER + INTRA:         -12.421
REMARK INTER:                  -9.978
REMARK INTRA:                  -2.443
REMARK UNBOUND:                -2.613
REMARK  10 active torsions:
REMARK  status: ('A' for Active; 'I' for Inactive)
REMARK    1  A    between atoms: N_5  and  C_13 
REMARK    2  A    between atoms: N_6  and  C_21 
REMARK    3  A    between atoms: N_7  and  C_18 
REMARK       I    between atoms: N_7  and  C_24 
REMARK    4  A    between atoms: C_13  and  C_15 
REMARK    5  A    between atoms: C_15  and  C_16 
REMARK    6  A    between atoms: C_16  and  C_17 
REMARK    7  A    between atoms: C_17  and  C_24 
REMARK    8  A    between atoms: C_17  and  C_25 
REMARK    9  A    between atoms: C_21  and  C_28 
REMARK   10  A    between atoms: C_25  and  C_30 
ROOT
HETATM    1  O   MK1     0       8.947  43.303  26.220  0.00  0.00    -0.221 OA
HETATM    2  C   MK1     0       8.329  42.484  25.071  0.00  0.00     0.178 C 
ENDROOT
BRANCH   2   3
HETATM    3  C   MK1     0       7.249  41.428  25.372  0.00  0.00     0.135 C 
BRANCH   3   4
HETATM    4  N   MK1     0       5.760  41.818  25.335  0.00  0.00    -0.339 N 
HETATM    5  C   MK1     0       4.829  41.200  24.276  0.00  0.00     0.123 A 
HETATM    6  C   MK1     0       3.339  41.590  24.237  0.00  0.00     0.108 A 
HETATM    7  C   MK1     0       5.387  40.192  23.253  0.00  0.00     0.227 A 
HETATM    8  N   MK1     0       2.781  42.598  25.260  0.00  0.00    -0.339 N 
HETATM    9  C   MK1     0       3.182  40.903  23.358  0.00  0.00    -0.089 A 
HETATM   10  C   MK1     0       3.713  43.216  26.319  0.00  0.00     0.126 A 
HETATM   11  C   MK1     0       5.202  42.826  26.356  0.00  0.00     0.126 A 
HETATM   12  C   MK1     0       2.966  39.964  22.157  0.00  0.00     0.134 A 
HETATM   13  N   MK1     0       4.455  39.574  22.194  0.00  0.00    -0.237 NA
HETATM   14  C   MK1     0       2.750  39.025  20.954  0.00  0.00     0.037 C 
HETATM   15  C   MK1     0       1.476  40.354  22.119  0.00  0.00     0.037 C 
HETATM   16  O   MK1     0       6.876  39.802  23.291  0.00  0.00    -0.168 OA
BRANCH   8  17
HETATM   17  C   MK1     0       1.292  42.988  25.222  0.00  0.00     0.104 C 
BRANCH  17  18
HETATM   18  C   MK1     0       0.256  42.146  25.989  0.00  0.00     0.046 A 
HETATM   19  C   MK1     0      -0.230  40.805  25.406  0.00  0.00     0.006 A 
HETATM   20  C   MK1     0      -1.266  39.962  26.172  0.00  0.00     0.026 A 
HETATM   21  C   MK1     0      -1.817  40.460  27.522  0.00  0.00     0.120 A 
HETATM   22  N   MK1     0      -1.331  41.800  28.105  0.00  0.00    -0.295 NA
HETATM   23  C   MK1     0      -0.295  42.643  27.338  0.00  0.00     0.122 A 
ENDBRANCH  17  18
ENDBRANCH   8  17
ENDBRANCH   3   4
ENDBRANCH   2   3
BRANCH   2  24
HETATM   24  C   MK1     0       8.791  42.721  23.621  0.00  0.00     0.061 C 
BRANCH  24  25
HETATM   25  C   MK1     0      10.068  43.534  23.343  0.00  0.00     0.002 C 
BRANCH  25  26
HETATM   26  C   MK1     0      11.449  42.939  23.677  0.00  0.00     0.205 C 
HETATM   27  O   MK1     0      12.042  43.115  25.088  0.00  0.00    -0.170 OA
HETATM   28  N   MK1     0      12.237  42.167  22.602  0.00  0.00    -0.219 NA
BRANCH  28  29
HETATM   29  C   MK1     0      13.616  41.572  22.937  0.00  0.00     0.100 A 
HETATM   30  C   MK1     0      13.906  40.107  23.274  0.00  0.00     0.130 A 
HETATM   31  O   MK1     0      12.868  38.971  23.337  0.00  0.00    -0.193 OA
HETATM   32  C   MK1     0      15.408  39.968  23.537  0.00  0.00     0.077 A 
HETATM   33  C   MK1     0      16.051  41.345  23.364  0.00  0.00    -0.040 A 
HETATM   34  C   MK1     0      14.938  42.342  22.991  0.00  0.00    -0.010 A 
HETATM   35  C   MK1     0      17.507  41.831  23.496  0.00  0.00     0.022 A 
HETATM   36  C   MK1     0      15.282  43.825  22.750  0.00  0.00     0.027 A 
HETATM   37  C   MK1     0      16.737  44.310  22.882  0.00  0.00     0.005 A 
HETATM   38  C   MK1     0      17.850  43.313  23.255  0.00  0.00     0.005 A 
ENDBRANCH  28  29
ENDBRANCH  25  26
BRANCH  25  39
HETATM   39  C   MK1     0       9.967  44.943  22.730  0.00  0.00     0.026 C 
BRANCH  39  40
HETATM   40  C   MK1     0      11.203  45.592  22.081  0.00  0.00     0.004 A 
HETATM   41  C   MK1     0      12.040  46.615  22.870  0.00  0.00     0.000 A 
HETATM   42  C   MK1     0      13.277  47.263  22.221  0.00  0.00     0.000 A 
HETATM   43  C   MK1     0      13.677  46.889  20.782  0.00  0.00     0.000 A 
HETATM   44  C   MK1     0      12.840  45.865  19.991  0.00  0.00     0.000 A 
HETATM   45  C   MK1     0      11.603  45.217  20.641  0.00  0.00     0.000 A 
ENDBRANCH  39  40
ENDBRANCH  25  39
ENDBRANCH  24  25
ENDBRANCH   2  24
TORSDOF 10
ENDMDL
MODEL 4
REMARK VINA RESULT:    -6.131      3.046      7.095
REMARK INTER + INTRA:         -12.329
REMARK INTER:                 -10.088
REMARK INTRA:                  -2.241
REMARK UNBOUND:                -2.613
REMARK  10 active torsions:
REMARK  status: ('A' for Active; 'I' for Inactive)
REMARK    1  A    between atoms: N_5  and  C_13 
REMARK    2  A    between atoms: N_6  and  C_21 
REMARK    3  A    between atoms: N_7  and  C_18 
REMARK       I    between atoms: N_7  and  C_24 
REMARK    4  A    between atoms: C_13  and  C_15 
REMARK    5  A    between atoms: C_15  and  C_16 
REMARK    6  A    between atoms: C_16  and  C_17 
REMARK    7  A    between atoms: C_17  and  C_24 
REMARK    8  A    between atoms: C_17  and  C_25 
REMARK    9  A    between atoms: C_21  and  C_28 
REMARK   10  A    between atoms: C_25  and  C_30 
ROOT
HETATM    1  O   MK1     0      13.371  41.943  25.957  0.00  0.00    -0.221 OA
HETATM    2  C   MK1     0      13.611  40.827  24.923  0.00  0.00     0.178 C 
ENDROOT
BRANCH   2   3
HETATM    3  C   MK1     0      14.842  39.910  25.051  0.00  0.00     0.135 C 
BRANCH   3   4
HETATM    4  N   MK1     0      16.200  40.363  24.483  0.00  0.00    -0.339 N 
HETATM    5  C   MK1     0      17.385  40.618  25.433  0.00  0.00     0.123 A 
HETATM    6  C   MK1     0      18.744  41.071  24.866  0.00  0.00     0.108 A 
HETATM    7  C   MK1     0      17.212  40.421  26.951  0.00  0.00     0.227 A 
HETATM    8  N   MK1     0      18.917  41.268  23.349  0.00  0.00    -0.339 N 
HETATM    9  C   MK1     0      19.171  41.096  25.909  0.00  0.00    -0.089 A 
HETATM   10  C   MK1     0      17.732  41.013  22.399  0.00  0.00     0.126 A 
HETATM   11  C   MK1     0      16.374  40.560  22.966  0.00  0.00     0.126 A 
HETATM   12  C   MK1     0      19.755  41.130  27.334  0.00  0.00     0.134 A 
HETATM   13  N   MK1     0      18.396  40.677  27.902  0.00  0.00    -0.237 NA
HETATM   14  C   MK1     0      20.339  41.163  28.759  0.00  0.00     0.037 C 
HETATM   15  C   MK1     0      21.113  41.582  26.767  0.00  0.00     0.037 C 
HETATM   16  O   MK1     0      15.853  39.969  27.518  0.00  0.00    -0.168 OA
BRANCH   8  17
HETATM   17  C   MK1     0      20.276  41.721  22.782  0.00  0.00     0.104 C 
BRANCH  17  18
HETATM   18  C   MK1     0      20.767  43.161  23.019  0.00  0.00     0.046 A 
HETATM   19  C   MK1     0      22.162  43.409  23.623  0.00  0.00     0.006 A 
HETATM   20  C   MK1     0      22.655  44.848  23.860  0.00  0.00     0.026 A 
HETATM   21  C   MK1     0      21.752  46.041  23.493  0.00  0.00     0.120 A 
HETATM   22  N   MK1     0      20.357  45.794  22.888  0.00  0.00    -0.295 NA
HETATM   23  C   MK1     0      19.865  44.353  22.651  0.00  0.00     0.122 A 
ENDBRANCH  17  18
ENDBRANCH   8  17
ENDBRANCH   3   4
ENDBRANCH   2   3
BRANCH   2  24
HETATM   24  C   MK1     0      12.620  40.627  23.762  0.00  0.00     0.061 C 
BRANCH  24  25
HETATM   25  C   MK1     0      11.545  41.692  23.475  0.00  0.00     0.002 C 
BRANCH  25  26
HETATM   26  C   MK1     0      11.963  43.116  23.062  0.00  0.00     0.205 C 
HETATM   27  O   MK1     0      11.114  44.324  23.499  0.00  0.00    -0.170 OA
HETATM   28  N   MK1     0      13.229  43.332  22.211  0.00  0.00    -0.219 NA
BRANCH  28  29
HETATM   29  C   MK1     0      13.646  44.755  21.799  0.00  0.00     0.100 A 
HETATM   30  C   MK1     0      14.895  45.501  22.278  0.00  0.00     0.130 A 
HETATM   31  O   MK1     0      15.952  44.957  23.256  0.00  0.00    -0.193 OA
HETATM   32  C   MK1     0      14.908  46.880  21.614  0.00  0.00     0.077 A 
HETATM   33  C   MK1     0      13.668  46.992  20.723  0.00  0.00    -0.040 A 
HETATM   34  C   MK1     0      12.884  45.672  20.838  0.00  0.00    -0.010 A 
HETATM   35  C   MK1     0      13.144  48.123  19.818  0.00  0.00     0.022 A 
HETATM   36  C   MK1     0      11.576  45.482  20.048  0.00  0.00     0.027 A 
HETATM   37  C   MK1     0      11.052  46.613  19.143  0.00  0.00     0.005 A 
HETATM   38  C   MK1     0      11.836  47.933  19.028  0.00  0.00     0.005 A 
ENDBRANCH  28  29
ENDBRANCH  25  26
BRANCH  25  39
HETATM   39  C   MK1     0      10.053  41.334  23.601  0.00  0.00     0.026 C 
BRANCH  39  40
HETATM   40  C   MK1     0       9.288  41.665  24.896  0.00  0.00     0.004 A 
HETATM   41  C   MK1     0      10.007  42.381  26.053  0.00  0.00     0.000 A 
HETATM   42  C   MK1     0       9.242  42.712  27.348  0.00  0.00     0.000 A 
HETATM   43  C   MK1     0       7.758  42.327  27.486  0.00  0.00     0.000 A 
HETATM   44  C   MK1     0       7.038  41.609  26.327  0.00  0.00     0.000 A 
HETATM   45  C   MK1     0       7.803  41.279  25.033  0.00  0.00     0.000 A 
ENDBRANCH  39  40
ENDBRANCH  25  39
ENDBRANCH  24  25
ENDBRANCH   2  24
TORSDOF 10
ENDMDL
MODEL 5
REMARK VINA RESULT:    -6.107      2.287      4.192
REMARK INTER + INTRA:         -12.291
REMARK INTER:                 -10.339
REMARK INTRA:                  -1.952
REMARK UNBOUND:                -2.613
REMARK  10 active torsions:
REMARK  status: ('A' for Active; 'I' for Inactive)
REMARK    1  A    between atoms: N_5  and  C_13 
REMARK    2  A    between atoms: N_6  and  C_21 
REMARK    3  A    between atoms: N_7  and  C_18 
REMARK       I    between atoms: N_7  and  C_24 
REMARK    4  A    between atoms: C_13  and  C_15 
REMARK    5  A    between atoms: C_15  and  C_16 
REMARK    6  A    between atoms: C_16  and  C_17 
REMARK    7  A    between atoms: C_17  and  C_24 
REMARK    8  A    between atoms: C_17  and  C_25 
REMARK    9  A    between atoms: C_21  and  C_28 
REMARK   10  A    between atoms: C_25  and  C_30 
ROOT
HETATM    1  O   MK1     0      10.537  42.263  25.324  0.00  0.00    -0.221 OA
HETATM    2  C   MK1     0      10.327  41.454  24.030  0.00  0.00     0.178 C 
ENDROOT
BRANCH   2   3
HETATM    3  C   MK1     0      11.470  41.330  23.005  0.00  0.00     0.135 C 
BRANCH   3   4
HETATM    4  N   MK1     0      12.922  41.164  23.489  0.00  0.00    -0.339 N 
HETATM    5  C   MK1     0      13.939  42.301  23.276  0.00  0.00     0.123 A 
HETATM    6  C   MK1     0      15.392  42.135  23.760  0.00  0.00     0.108 A 
HETATM    7  C   MK1     0      13.504  43.604  22.580  0.00  0.00     0.227 A 
HETATM    8  N   MK1     0      15.828  40.832  24.456  0.00  0.00    -0.339 N 
HETATM    9  C   MK1     0      15.638  43.166  23.375  0.00  0.00    -0.089 A 
HETATM   10  C   MK1     0      14.810  39.696  24.669  0.00  0.00     0.126 A 
HETATM   11  C   MK1     0      13.358  39.862  24.185  0.00  0.00     0.126 A 
HETATM   12  C   MK1     0      15.973  44.574  22.851  0.00  0.00     0.134 A 
HETATM   13  N   MK1     0      14.521  44.741  22.367  0.00  0.00    -0.237 NA
HETATM   14  C   MK1     0      16.309  45.983  22.326  0.00  0.00     0.037 C 
HETATM   15  C   MK1     0      17.426  44.409  23.334  0.00  0.00     0.037 C 
HETATM   16  O   MK1     0      12.051  43.769  22.096  0.00  0.00    -0.168 OA
BRANCH   8  17
HETATM   17  C   MK1     0      17.281  40.667  24.940  0.00  0.00     0.104 C 
BRANCH  17  18
HETATM   18  C   MK1     0      18.449  40.938  23.974  0.00  0.00     0.046 A 
HETATM   19  C   MK1     0      18.448  40.311  22.567  0.00  0.00     0.006 A 
HETATM   20  C   MK1     0      19.615  40.581  21.601  0.00  0.00     0.026 A 
HETATM   21  C   MK1     0      20.786  41.482  22.042  0.00  0.00     0.120 A 
HETATM   22  N   MK1     0      20.787  42.109  23.448  0.00  0.00    -0.295 NA
HETATM   23  C   MK1     0      19.619  41.838  24.414  0.00  0.00     0.122 A 
ENDBRANCH  17  18
ENDBRANCH   8  17
ENDBRANCH   3   4
ENDBRANCH   2   3
BRANCH   2  24
HETATM   24  C   MK1     0       8.974  40.770  23.761  0.00  0.00     0.061 C 
BRANCH  24  25
HETATM   25  C   MK1     0       7.728  41.621  23.455  0.00  0.00     0.002 C 
BRANCH  25  26
HETATM   26  C   MK1     0       6.321  41.030  23.669  0.00  0.00     0.205 C 
HETATM   27  O   MK1     0       5.998  39.611  23.167  0.00  0.00    -0.170 OA
HETATM   28  N   MK1     0       5.238  41.859  24.385  0.00  0.00    -0.219 NA
BRANCH  28  29
HETATM   29  C   MK1     0       3.833  41.269  24.599  0.00  0.00     0.100 A 
HETATM   30  C   MK1     0       3.171  40.991  25.952  0.00  0.00     0.130 A 
HETATM   31  O   MK1     0       3.795  41.252  27.335  0.00  0.00    -0.193 OA
HETATM   32  C   MK1     0       1.780  40.407  25.689  0.00  0.00     0.077 A 
HETATM   33  C   MK1     0       1.578  40.322  24.174  0.00  0.00    -0.040 A 
HETATM   34  C   MK1     0       2.853  40.858  23.497  0.00  0.00    -0.010 A 
HETATM   35  C   MK1     0       0.400  39.827  23.314  0.00  0.00     0.022 A 
HETATM   36  C   MK1     0       2.950  40.899  21.960  0.00  0.00     0.027 A 
HETATM   37  C   MK1     0       1.772  40.404  21.101  0.00  0.00     0.005 A 
HETATM   38  C   MK1     0       0.496  39.868  21.778  0.00  0.00     0.005 A 
ENDBRANCH  28  29
ENDBRANCH  25  26
BRANCH  25  39
HETATM   39  C   MK1     0       7.886  43.062  22.935  0.00  0.00     0.026 C 
BRANCH  39  40
HETATM   40  C   MK1     0       8.165  44.210  23.923  0.00  0.00     0.004 A 
HETATM   41  C   MK1     0       7.581  44.161  25.346  0.00  0.00     0.000 A 
HETATM   42  C   MK1     0       7.859  45.310  26.333  0.00  0.00     0.000 A 
HETATM   43  C   MK1     0       8.724  46.508  25.897  0.00  0.00     0.000 A 
HETATM   44  C   MK1     0       9.309  46.557  24.472  0.00  0.00     0.000 A 
HETATM   45  C   MK1     0       9.029  45.408  23.486  0.00  0.00     0.000 A 
ENDBRANCH  39  40
ENDBRANCH  25  39
ENDBRANCH  24  25
ENDBRANCH   2  24
TORSDOF 10
ENDMDL
MODEL 6
REMARK VINA RESULT:    -6.020      2.685     10.171
REMARK INTER + INTRA:         -12.153
REMARK INTER:                  -8.971
REMARK INTRA:                  -3.182
REMARK UNBOUND:                -2.613
REMARK  10 active torsions:
REMARK  status: ('A' for Active; 'I' for Inactive)
REMARK    1  A    between atoms: N_5  and  C_13 
REMARK    2  A    between atoms: N_6  and  C_21 
REMARK    3  A    between atoms: N_7  and  C_18 
REMARK       I    between atoms: N_7  and  C_24 
REMARK    4  A    between atoms: C_13  and  C_15 
REMARK    5  A    between atoms: C_15  and  C_16 
REMARK    6  A    between atoms: C_16  and  C_17 
REMARK    7  A    between atoms: C_17  and  C_24 
REMARK    8  A    between atoms: C_17  and  C_25 
REMARK    9  A    between atoms: C_21  and  C_28 
REMARK   10  A    between atoms: C_25  and  C_30 
ROOT
HETATM    1  O   MK1     0      14.429  46.782  26.666  0.00  0.00    -0.221 OA
HETATM    2  C   MK1     0      13.363  45.679  26.803  0.00  0.00     0.178 C 
ENDROOT
BRANCH   2   3
HETATM    3  C   MK1     0      11.923  45.936  26.319  0.00  0.00     0.135 C 
BRANCH   3   4
HETATM    4  N   MK1     0      11.156  44.833  25.567  0.00  0.00    -0.339 N 
HETATM    5  C   MK1     0      10.028  44.060  26.275  0.00  0.00     0.123 A 
HETATM    6  C   MK1     0       9.260  42.956  25.524  0.00  0.00     0.108 A 
HETATM    7  C   MK1     0       9.667  44.390  27.736  0.00  0.00     0.227 A 
HETATM    8  N   MK1     0       9.621  42.626  24.063  0.00  0.00    -0.339 N 
HETATM    9  C   MK1     0       8.631  42.769  26.441  0.00  0.00    -0.089 A 
HETATM   10  C   MK1     0      10.749  43.399  23.355  0.00  0.00     0.126 A 
HETATM   11  C   MK1     0      11.516  44.502  24.107  0.00  0.00     0.126 A 
HETATM   12  C   MK1     0       7.772  42.514  27.692  0.00  0.00     0.134 A 
HETATM   13  N   MK1     0       8.539  43.617  28.445  0.00  0.00    -0.237 NA
HETATM   14  C   MK1     0       6.912  42.258  28.945  0.00  0.00     0.037 C 
HETATM   15  C   MK1     0       7.004  41.410  26.941  0.00  0.00     0.037 C 
HETATM   16  O   MK1     0      10.435  45.493  28.487  0.00  0.00    -0.168 OA
BRANCH   8  17
HETATM   17  C   MK1     0       8.853  41.522  23.312  0.00  0.00     0.104 C 
BRANCH  17  18
HETATM   18  C   MK1     0       7.318  41.587  23.207  0.00  0.00     0.046 A 
HETATM   19  C   MK1     0       6.619  42.938  22.966  0.00  0.00     0.006 A 
HETATM   20  C   MK1     0       5.084  43.004  22.862  0.00  0.00     0.026 A 
HETATM   21  C   MK1     0       4.248  41.717  22.998  0.00  0.00     0.120 A 
HETATM   22  N   MK1     0       4.947  40.366  23.239  0.00  0.00    -0.295 NA
HETATM   23  C   MK1     0       6.482  40.302  23.344  0.00  0.00     0.122 A 
ENDBRANCH  17  18
ENDBRANCH   8  17
ENDBRANCH   3   4
ENDBRANCH   2   3
BRANCH   2  24
HETATM   24  C   MK1     0      13.735  44.320  27.422  0.00  0.00     0.061 C 
BRANCH  24  25
HETATM   25  C   MK1     0      14.193  43.160  26.518  0.00  0.00     0.002 C 
BRANCH  25  26
HETATM   26  C   MK1     0      15.627  43.140  25.957  0.00  0.00     0.205 C 
HETATM   27  O   MK1     0      16.750  42.434  26.741  0.00  0.00    -0.170 OA
HETATM   28  N   MK1     0      15.940  43.826  24.614  0.00  0.00    -0.219 NA
BRANCH  28  29
HETATM   29  C   MK1     0      17.373  43.806  24.054  0.00  0.00     0.100 A 
HETATM   30  C   MK1     0      18.375  44.963  24.106  0.00  0.00     0.130 A 
HETATM   31  O   MK1     0      18.124  46.350  24.727  0.00  0.00    -0.193 OA
HETATM   32  C   MK1     0      19.670  44.501  23.433  0.00  0.00     0.077 A 
HETATM   33  C   MK1     0      19.473  43.058  22.963  0.00  0.00    -0.040 A 
HETATM   34  C   MK1     0      18.047  42.626  23.349  0.00  0.00    -0.010 A 
HETATM   35  C   MK1     0      20.405  42.073  22.232  0.00  0.00     0.022 A 
HETATM   36  C   MK1     0      17.551  41.209  23.004  0.00  0.00     0.027 A 
HETATM   37  C   MK1     0      18.482  40.224  22.273  0.00  0.00     0.005 A 
HETATM   38  C   MK1     0      19.909  40.656  21.887  0.00  0.00     0.005 A 
ENDBRANCH  28  29
ENDBRANCH  25  26
BRANCH  25  39
HETATM   39  C   MK1     0      13.216  42.020  26.174  0.00  0.00     0.026 C 
BRANCH  39  40
HETATM   40  C   MK1     0      13.608  40.961  25.126  0.00  0.00     0.004 A 
HETATM   41  C   MK1     0      14.053  39.558  25.578  0.00  0.00     0.000 A 
HETATM   42  C   MK1     0      14.444  38.499  24.531  0.00  0.00     0.000 A 
HETATM   43  C   MK1     0      14.392  38.843  23.031  0.00  0.00     0.000 A 
HETATM   44  C   MK1     0      13.947  40.248  22.578  0.00  0.00     0.000 A 
HETATM   45  C   MK1     0      13.556  41.305  23.626  0.00  0.00     0.000 A 
ENDBRANCH  39  40
ENDBRANCH  25  39
ENDBRANCH  24  25
ENDBRANCH   2  24
TORSDOF 10
ENDMDL
MODEL 7
REMARK VINA RESULT:    -6.013      2.796     11.134
REMARK INTER + INTRA:         -12.142
REMARK INTER:                 -10.076
REMARK INTRA:                  -2.066
REMARK UNBOUND:                -2.613
REMARK  10 active torsions:
REMARK  status: ('A' for Active; 'I' for Inactive)
REMARK    1  A    between atoms: N_5  and  C_13 
REMARK    2  A    between atoms: N_6  and  C_21 
REMARK    3  A    between atoms: N_7  and  C_18 
REMARK       I    between atoms: N_7  and  C_24 
REMARK    4  A    between atoms: C_13  and  C_15 
REMARK    5  A    between atoms: C_15  and  C_16 
REMARK    6  A    between atoms: C_16  and  C_17 
REMARK    7  A    between atoms: C_17  and  C_24 
REMARK    8  A    between atoms: C_17  and  C_25 
REMARK    9  A    between atoms: C_21  and  C_28 
REMARK   10  A    between atoms: C_25  and  C_30 
ROOT
HETATM    1  O   MK1     0      10.912  42.229  27.125  0.00  0.00    -0.221 OA
HETATM    2  C   MK1     0      10.378  43.365  26.232  0.00  0.00     0.178 C 
ENDROOT
BRANCH   2   3
HETATM    3  C   MK1     0       8.861  43.588  26.095  0.00  0.00     0.135 C 
BRANCH   3   4
HETATM    4  N   MK1     0       8.012  42.614  25.258  0.00  0.00    -0.339 N 
HETATM    5  C   MK1     0       6.496  42.506  25.504  0.00  0.00     0.123 A 
HETATM    6  C   MK1     0       5.646  41.531  24.667  0.00  0.00     0.108 A 
HETATM    7  C   MK1     0       5.828  43.372  26.589  0.00  0.00     0.227 A 
HETATM    8  N   MK1     0       6.314  40.665  23.583  0.00  0.00    -0.339 N 
HETATM    9  C   MK1     0       4.724  41.852  25.230  0.00  0.00    -0.089 A 
HETATM   10  C   MK1     0       7.830  40.773  23.336  0.00  0.00     0.126 A 
HETATM   11  C   MK1     0       8.679  41.748  24.173  0.00  0.00     0.126 A 
HETATM   12  C   MK1     0       3.463  42.289  25.999  0.00  0.00     0.134 A 
HETATM   13  N   MK1     0       4.312  43.264  26.837  0.00  0.00    -0.237 NA
HETATM   14  C   MK1     0       2.202  42.727  26.768  0.00  0.00     0.037 C 
HETATM   15  C   MK1     0       2.614  41.315  25.161  0.00  0.00     0.037 C 
HETATM   16  O   MK1     0       6.678  44.346  27.426  0.00  0.00    -0.168 OA
BRANCH   8  17
HETATM   17  C   MK1     0       5.464  39.690  22.745  0.00  0.00     0.104 C 
BRANCH  17  18
HETATM   18  C   MK1     0       4.336  40.229  21.847  0.00  0.00     0.046 A 
HETATM   19  C   MK1     0       4.489  41.596  21.154  0.00  0.00     0.006 A 
HETATM   20  C   MK1     0       3.362  42.136  20.256  0.00  0.00     0.026 A 
HETATM   21  C   MK1     0       2.079  41.308  20.050  0.00  0.00     0.120 A 
HETATM   22  N   MK1     0       1.925  39.941  20.742  0.00  0.00    -0.295 NA
HETATM   23  C   MK1     0       3.054  39.402  21.641  0.00  0.00     0.122 A 
ENDBRANCH  17  18
ENDBRANCH   8  17
ENDBRANCH   3   4
ENDBRANCH   2   3
BRANCH   2  24
HETATM   24  C   MK1     0      11.362  44.277  25.476  0.00  0.00     0.061 C 
BRANCH  24  25
HETATM   25  C   MK1     0      12.073  43.761  24.211  0.00  0.00     0.002 C 
BRANCH  25  26
HETATM   26  C   MK1     0      13.466  43.112  24.322  0.00  0.00     0.205 C 
HETATM   27  O   MK1     0      14.057  42.792  25.708  0.00  0.00    -0.170 OA
HETATM   28  N   MK1     0      14.266  42.782  23.048  0.00  0.00    -0.219 NA
BRANCH  28  29
HETATM   29  C   MK1     0      15.657  42.133  23.160  0.00  0.00     0.100 A 
HETATM   30  C   MK1     0      15.940  40.647  23.400  0.00  0.00     0.130 A 
HETATM   31  O   MK1     0      14.881  39.542  23.573  0.00  0.00    -0.193 OA
HETATM   32  C   MK1     0      17.458  40.452  23.439  0.00  0.00     0.077 A 
HETATM   33  C   MK1     0      18.119  41.816  23.223  0.00  0.00    -0.040 A 
HETATM   34  C   MK1     0      17.000  42.860  23.049  0.00  0.00    -0.010 A 
HETATM   35  C   MK1     0      19.595  42.251  23.160  0.00  0.00     0.022 A 
HETATM   36  C   MK1     0      17.358  44.339  22.812  0.00  0.00     0.027 A 
HETATM   37  C   MK1     0      18.834  44.774  22.750  0.00  0.00     0.005 A 
HETATM   38  C   MK1     0      19.952  43.730  22.923  0.00  0.00     0.005 A 
ENDBRANCH  28  29
ENDBRANCH  25  26
BRANCH  25  39
HETATM   39  C   MK1     0      11.394  43.895  22.835  0.00  0.00     0.026 C 
BRANCH  39  40
HETATM   40  C   MK1     0      11.811  45.027  21.878  0.00  0.00     0.004 A 
HETATM   41  C   MK1     0      11.174  45.126  20.480  0.00  0.00     0.000 A 
HETATM   42  C   MK1     0      11.590  46.258  19.522  0.00  0.00     0.000 A 
HETATM   43  C   MK1     0      12.644  47.291  19.963  0.00  0.00     0.000 A 
HETATM   44  C   MK1     0      13.281  47.192  21.362  0.00  0.00     0.000 A 
HETATM   45  C   MK1     0      12.864  46.060  22.319  0.00  0.00     0.000 A 
ENDBRANCH  39  40
ENDBRANCH  25  39
ENDBRANCH  24  25
ENDBRANCH   2  24
TORSDOF 10
ENDMDL
MODEL 8
REMARK VINA RESULT:    -6.011      2.252      3.694
REMARK INTER + INTRA:         -12.139
REMARK INTER:                  -9.272
REMARK INTRA:                  -2.867
REMARK UNBOUND:                -2.613
REMARK  10 active torsions:
REMARK  status: ('A' for Active; 'I' for Inactive)
REMARK    1  A    between atoms: N_5  and  C_13 
REMARK    2  A    between atoms: N_6  and  C_21 
REMARK    3  A    between atoms: N_7  and  C_18 
REMARK       I    between atoms: N_7  and  C_24 
REMARK    4  A    between atoms: C_13  and  C_15 
REMARK    5  A    between atoms: C_15  and  C_16 
REMARK    6  A    between atoms: C_16  and  C_17 
REMARK    7  A    between atoms: C_17  and  C_24 
REMARK    8  A    between atoms: C_17  and  C_25 
REMARK    9  A    between atoms: C_21  and  C_28 
REMARK   10  A    between atoms: C_25  and  C_30 
ROOT
HETATM    1  O   MK1     0       9.704  43.075  27.523  0.00  0.00    -0.221 OA
HETATM    2  C   MK1     0      10.682  43.277  26.350  0.00  0.00     0.178 C 
ENDROOT
BRANCH   2   3
HETATM    3  C   MK1     0      11.232  44.681  26.040  0.00  0.00     0.135 C 
BRANCH   3   4
HETATM    4  N   MK1     0      12.509  44.837  25.193  0.00  0.00    -0.339 N 
HETATM    5  C   MK1     0      12.408  45.286  23.723  0.00  0.00     0.123 A 
HETATM    6  C   MK1     0      13.684  45.442  22.875  0.00  0.00     0.108 A 
HETATM    7  C   MK1     0      11.030  45.578  23.100  0.00  0.00     0.227 A 
HETATM    8  N   MK1     0      15.062  45.149  23.498  0.00  0.00    -0.339 N 
HETATM    9  C   MK1     0      13.059  45.755  21.991  0.00  0.00    -0.089 A 
HETATM   10  C   MK1     0      15.163  44.701  24.968  0.00  0.00     0.126 A 
HETATM   11  C   MK1     0      13.887  44.545  25.815  0.00  0.00     0.126 A 
HETATM   12  C   MK1     0      12.205  46.183  20.783  0.00  0.00     0.134 A 
HETATM   13  N   MK1     0      10.928  46.027  21.630  0.00  0.00    -0.237 NA
HETATM   14  C   MK1     0      11.351  46.611  19.575  0.00  0.00     0.037 C 
HETATM   15  C   MK1     0      13.481  46.339  19.936  0.00  0.00     0.037 C 
HETATM   16  O   MK1     0       9.753  45.422  23.948  0.00  0.00    -0.168 OA
BRANCH   8  17
HETATM   17  C   MK1     0      16.338  45.305  22.650  0.00  0.00     0.104 C 
BRANCH  17  18
HETATM   18  C   MK1     0      17.057  46.666  22.584  0.00  0.00     0.046 A 
HETATM   19  C   MK1     0      16.434  47.828  21.787  0.00  0.00     0.006 A 
HETATM   20  C   MK1     0      17.152  49.188  21.720  0.00  0.00     0.026 A 
HETATM   21  C   MK1     0      18.494  49.387  22.451  0.00  0.00     0.120 A 
HETATM   22  N   MK1     0      19.116  48.226  23.248  0.00  0.00    -0.295 NA
HETATM   23  C   MK1     0      18.398  46.865  23.314  0.00  0.00     0.122 A 
ENDBRANCH  17  18
ENDBRANCH   8  17
ENDBRANCH   3   4
ENDBRANCH   2   3
BRANCH   2  24
HETATM   24  C   MK1     0      11.108  42.075  25.487  0.00  0.00     0.061 C 
BRANCH  24  25
HETATM   25  C   MK1     0      10.338  41.741  24.197  0.00  0.00     0.002 C 
BRANCH  25  26
HETATM   26  C   MK1     0       8.811  41.938  24.138  0.00  0.00     0.205 C 
HETATM   27  O   MK1     0       8.191  42.817  23.036  0.00  0.00    -0.170 OA
HETATM   28  N   MK1     0       7.906  41.257  25.181  0.00  0.00    -0.219 NA
BRANCH  28  29
HETATM   29  C   MK1     0       6.380  41.455  25.123  0.00  0.00     0.100 A 
HETATM   30  C   MK1     0       5.548  42.320  26.073  0.00  0.00     0.130 A 
HETATM   31  O   MK1     0       6.092  43.145  27.254  0.00  0.00    -0.193 OA
HETATM   32  C   MK1     0       4.082  42.223  25.644  0.00  0.00     0.077 A 
HETATM   33  C   MK1     0       4.002  41.297  24.428  0.00  0.00    -0.040 A 
HETATM   34  C   MK1     0       5.430  40.820  24.104  0.00  0.00    -0.010 A 
HETATM   35  C   MK1     0       2.817  40.821  23.566  0.00  0.00     0.022 A 
HETATM   36  C   MK1     0       5.673  39.867  22.918  0.00  0.00     0.027 A 
HETATM   37  C   MK1     0       4.488  39.391  22.057  0.00  0.00     0.005 A 
HETATM   38  C   MK1     0       3.060  39.868  22.381  0.00  0.00     0.005 A 
ENDBRANCH  28  29
ENDBRANCH  25  26
BRANCH  25  39
HETATM   39  C   MK1     0      11.092  41.210  22.964  0.00  0.00     0.026 C 
BRANCH  39  40
HETATM   40  C   MK1     0      12.571  40.796  23.085  0.00  0.00     0.004 A 
HETATM   41  C   MK1     0      13.682  41.846  22.910  0.00  0.00     0.000 A 
HETATM   42  C   MK1     0      15.161  41.432  23.032  0.00  0.00     0.000 A 
HETATM   43  C   MK1     0      15.527  39.966  23.329  0.00  0.00     0.000 A 
HETATM   44  C   MK1     0      14.415  38.914  23.504  0.00  0.00     0.000 A 
HETATM   45  C   MK1     0      12.938  39.329  23.382  0.00  0.00     0.000 A 
ENDBRANCH  39  40
ENDBRANCH  25  39
ENDBRANCH  24  25
ENDBRANCH   2  24
TORSDOF 10
ENDMDL
MODEL 9
REMARK VINA RESULT:    -5.955      3.033     11.609
REMARK INTER + INTRA:         -12.050
REMARK INTER:                  -9.793
REMARK INTRA:                  -2.258
REMARK UNBOUND:                -2.613
REMARK  10 active torsions:
REMARK  status: ('A' for Active; 'I' for Inactive)
REMARK    1  A    between atoms: N_5  and  C_13 
REMARK    2  A    between atoms: N_6  and  C_21 
REMARK    3  A    between atoms: N_7  and  C_18 
REMARK       I    between atoms: N_7  and  C_24 
REMARK    4  A    between atoms: C_13  and  C_15 
REMARK    5  A    between atoms: C_15  and  C_16 
REMARK    6  A    between atoms: C_16  and  C_17 
REMARK    7  A    between atoms: C_17  and  C_24 
REMARK    8  A    between atoms: C_17  and  C_25 
REMARK    9  A    between atoms: C_21  and  C_28 
REMARK   10  A    between atoms: C_25  and  C_30 
ROOT
HETATM    1  O   MK1     0       8.750  43.797  26.126  0.00  0.00    -0.221 OA
HETATM    2  C   MK1     0       8.320  42.688  25.147  0.00  0.00     0.178 C 
ENDROOT
BRANCH   2   3
HETATM    3  C   MK1     0       7.405  41.548  25.630  0.00  0.00     0.135 C 
BRANCH   3   4
HETATM    4  N   MK1     0       6.215  41.097  24.763  0.00  0.00    -0.339 N 
HETATM    5  C   MK1     0       4.778  41.469  25.174  0.00  0.00     0.123 A 
HETATM    6  C   MK1     0       3.587  41.019  24.307  0.00  0.00     0.108 A 
HETATM    7  C   MK1     0       4.531  42.292  26.452  0.00  0.00     0.227 A 
HETATM    8  N   MK1     0       3.834  40.196  23.028  0.00  0.00    -0.339 N 
HETATM    9  C   MK1     0       2.876  41.524  25.021  0.00  0.00    -0.089 A 
HETATM   10  C   MK1     0       5.271  39.824  22.618  0.00  0.00     0.126 A 
HETATM   11  C   MK1     0       6.461  40.274  23.485  0.00  0.00     0.126 A 
HETATM   12  C   MK1     0       1.904  42.213  25.996  0.00  0.00     0.134 A 
HETATM   13  N   MK1     0       3.094  42.664  26.864  0.00  0.00    -0.237 NA
HETATM   14  C   MK1     0       0.932  42.903  26.972  0.00  0.00     0.037 C 
HETATM   15  C   MK1     0       0.714  41.763  25.129  0.00  0.00     0.037 C 
HETATM   16  O   MK1     0       5.722  42.742  27.319  0.00  0.00    -0.168 OA
BRANCH   8  17
HETATM   17  C   MK1     0       2.644  39.745  22.161  0.00  0.00     0.104 C 
BRANCH  17  18
HETATM   18  C   MK1     0       1.936  40.756  21.241  0.00  0.00     0.046 A 
HETATM   19  C   MK1     0       2.764  41.669  20.318  0.00  0.00     0.006 A 
HETATM   20  C   MK1     0       2.057  42.681  19.397  0.00  0.00     0.026 A 
HETATM   21  C   MK1     0       0.520  42.779  19.399  0.00  0.00     0.120 A 
HETATM   22  N   MK1     0      -0.309  41.866  20.322  0.00  0.00    -0.295 NA
HETATM   23  C   MK1     0       0.399  40.855  21.243  0.00  0.00     0.122 A 
ENDBRANCH  17  18
ENDBRANCH   8  17
ENDBRANCH   3   4
ENDBRANCH   2   3
BRANCH   2  24
HETATM   24  C   MK1     0       8.807  42.718  23.687  0.00  0.00     0.061 C 
BRANCH  24  25
HETATM   25  C   MK1     0      10.095  43.477  23.320  0.00  0.00     0.002 C 
BRANCH  25  26
HETATM   26  C   MK1     0      11.470  42.871  23.659  0.00  0.00     0.205 C 
HETATM   27  O   MK1     0      12.094  43.110  25.047  0.00  0.00    -0.170 OA
HETATM   28  N   MK1     0      12.219  42.026  22.613  0.00  0.00    -0.219 NA
BRANCH  28  29
HETATM   29  C   MK1     0      13.593  41.420  22.953  0.00  0.00     0.100 A 
HETATM   30  C   MK1     0      13.872  39.950  23.279  0.00  0.00     0.130 A 
HETATM   31  O   MK1     0      12.826  38.820  23.324  0.00  0.00    -0.193 OA
HETATM   32  C   MK1     0      15.370  39.799  23.553  0.00  0.00     0.077 A 
HETATM   33  C   MK1     0      16.023  41.175  23.397  0.00  0.00    -0.040 A 
HETATM   34  C   MK1     0      14.919  42.182  23.024  0.00  0.00    -0.010 A 
HETATM   35  C   MK1     0      17.481  41.650  23.544  0.00  0.00     0.022 A 
HETATM   36  C   MK1     0      15.272  43.664  22.799  0.00  0.00     0.027 A 
HETATM   37  C   MK1     0      16.730  44.139  22.947  0.00  0.00     0.005 A 
HETATM   38  C   MK1     0      17.834  43.132  23.319  0.00  0.00     0.005 A 
ENDBRANCH  28  29
ENDBRANCH  25  26
BRANCH  25  39
HETATM   39  C   MK1     0      10.011  44.843  22.612  0.00  0.00     0.026 C 
BRANCH  39  40
HETATM   40  C   MK1     0      11.276  45.475  22.004  0.00  0.00     0.004 A 
HETATM   41  C   MK1     0      11.718  45.095  20.579  0.00  0.00     0.000 A 
HETATM   42  C   MK1     0      12.984  45.727  19.970  0.00  0.00     0.000 A 
HETATM   43  C   MK1     0      13.809  46.739  20.788  0.00  0.00     0.000 A 
HETATM   44  C   MK1     0      13.367  47.118  22.214  0.00  0.00     0.000 A 
HETATM   45  C   MK1     0      12.101  46.486  22.822  0.00  0.00     0.000 A 
ENDBRANCH  39  40
ENDBRANCH  25  39
ENDBRANCH  24  25
ENDBRANCH   2  24
TORSDOF 10
ENDMDL
