MODEL 1
REMARK VINA RESULT:   -11.104      0.000      0.000
REMARK INTER + INTRA:         -19.697
REMARK INTER:                 -17.595
REMARK INTRA:                  -2.102
REMARK UNBOUND:                -2.102
REMARK  10 active torsions:
REMARK  status: ('A' for Active; 'I' for Inactive)
REMARK    1  A    between atoms: N_5  and  C_13 
REMARK    2  A    between atoms: N_6  and  C_21 
REMARK    3  A    between atoms: N_7  and  C_18 
REMARK       I    between atoms: N_7  and  C_24 
REMARK    4  A    between atoms: C_13  and  C_15 
REMARK    5  A    between atoms: C_15  and  C_16 
REMARK    6  A    between atoms: C_16  and  C_17 
REMARK    7  A    between atoms: C_17  and  C_24 
REMARK    8  A    between atoms: C_17  and  C_25 
REMARK    9  A    between atoms: C_21  and  C_28 
REMARK   10  A    between atoms: C_25  and  C_30 
ROOT
HETATM    1  O   MK1     0      11.635  22.832   6.712  0.00  0.00    -0.221 OA
HETATM    2  C   MK1     0      12.447  24.130   6.881  0.00  0.00     0.178 C 
ENDROOT
BRANCH   2   3
HETATM    3  C   MK1     0      12.061  25.389   6.082  0.00  0.00     0.135 C 
BRANCH   3   4
HETATM    4  N   MK1     0      10.908  25.330   5.064  0.00  0.00    -0.339 N 
HETATM    5  C   MK1     0       9.545  25.960   5.407  0.00  0.00     0.123 A 
HETATM    6  C   MK1     0       8.390  25.903   4.389  0.00  0.00     0.108 A 
HETATM    7  C   MK1     0       9.336  26.649   6.769  0.00  0.00     0.227 A 
HETATM    8  N   MK1     0       8.599  25.214   3.027  0.00  0.00    -0.339 N 
HETATM    9  C   MK1     0       7.727  26.460   5.110  0.00  0.00    -0.089 A 
HETATM   10  C   MK1     0       9.962  24.584   2.684  0.00  0.00     0.126 A 
HETATM   11  C   MK1     0      11.116  24.642   3.702  0.00  0.00     0.126 A 
HETATM   12  C   MK1     0       6.820  27.220   6.095  0.00  0.00     0.134 A 
HETATM   13  N   MK1     0       7.973  27.279   7.114  0.00  0.00    -0.237 NA
HETATM   14  C   MK1     0       5.912  27.982   7.080  0.00  0.00     0.037 C 
HETATM   15  C   MK1     0       5.665  27.163   5.077  0.00  0.00     0.037 C 
HETATM   16  O   MK1     0      10.490  26.706   7.787  0.00  0.00    -0.168 OA
BRANCH   8  17
HETATM   17  C   MK1     0       7.445  25.156   2.010  0.00  0.00     0.104 C 
BRANCH  17  18
HETATM   18  C   MK1     0       6.133  24.437   2.373  0.00  0.00     0.046 A 
HETATM   19  C   MK1     0       6.114  23.399   3.512  0.00  0.00     0.006 A 
HETATM   20  C   MK1     0       4.803  22.679   3.877  0.00  0.00     0.026 A 
HETATM   21  C   MK1     0       3.509  22.997   3.102  0.00  0.00     0.120 A 
HETATM   22  N   MK1     0       3.528  24.034   1.964  0.00  0.00    -0.295 NA
HETATM   23  C   MK1     0       4.840  24.754   1.600  0.00  0.00     0.122 A 
ENDBRANCH  17  18
ENDBRANCH   8  17
ENDBRANCH   3   4
ENDBRANCH   2   3
BRANCH   2  24
HETATM   24  C   MK1     0      13.643  24.169   7.848  0.00  0.00     0.061 C 
BRANCH  24  25
HETATM   25  C   MK1     0      14.971  23.491   7.460  0.00  0.00     0.002 C 
BRANCH  25  26
HETATM   26  C   MK1     0      15.121  22.827   6.078  0.00  0.00     0.205 C 
HETATM   27  O   MK1     0      15.362  23.696   4.829  0.00  0.00    -0.170 OA
HETATM   28  N   MK1     0      15.030  21.296   5.945  0.00  0.00    -0.219 NA
BRANCH  28  29
HETATM   29  C   MK1     0      15.180  20.633   4.564  0.00  0.00     0.100 A 
HETATM   30  C   MK1     0      14.312  20.912   3.333  0.00  0.00     0.130 A 
HETATM   31  O   MK1     0      13.137  21.904   3.262  0.00  0.00    -0.193 OA
HETATM   32  C   MK1     0      14.816  20.032   2.186  0.00  0.00     0.077 A 
HETATM   33  C   MK1     0      15.997  19.207   2.703  0.00  0.00    -0.040 A 
HETATM   34  C   MK1     0      16.223  19.580   4.180  0.00  0.00    -0.010 A 
HETATM   35  C   MK1     0      16.902  18.160   2.026  0.00  0.00     0.022 A 
HETATM   36  C   MK1     0      17.354  18.907   4.980  0.00  0.00     0.027 A 
HETATM   37  C   MK1     0      18.259  17.861   4.303  0.00  0.00     0.005 A 
HETATM   38  C   MK1     0      18.033  17.487   2.826  0.00  0.00     0.005 A 
ENDBRANCH  28  29
ENDBRANCH  25  26
BRANCH  25  39
HETATM   39  C   MK1     0      16.148  23.477   8.452  0.00  0.00     0.026 C 
BRANCH  39  40
HETATM   40  C   MK1     0      16.728  22.136   8.940  0.00  0.00     0.004 A 
HETATM   41  C   MK1     0      15.814  21.108   9.632  0.00  0.00     0.000 A 
HETATM   42  C   MK1     0      16.394  19.767  10.119  0.00  0.00     0.000 A 
HETATM   43  C   MK1     0      17.888  19.453   9.914  0.00  0.00     0.000 A 
HETATM   44  C   MK1     0      18.802  20.482   9.221  0.00  0.00     0.000 A 
HETATM   45  C   MK1     0      18.222  21.822   8.735  0.00  0.00     0.000 A 
ENDBRANCH  39  40
ENDBRANCH  25  39
ENDBRANCH  24  25
ENDBRANCH   2  24
TORSDOF 10
ENDMDL
MODEL 2
REMARK VINA RESULT:   -10.395      1.957      4.705
REMARK INTER + INTRA:         -18.573
REMARK INTER:                 -16.429
REMARK INTRA:                  -2.144
REMARK UNBOUND:                -2.102
REMARK  10 active torsions:
REMARK  status: ('A' for Active; 'I' for Inactive)
REMARK    1  A    between atoms: N_5  and  C_13 
REMARK    2  A    between atoms: N_6  and  C_21 
REMARK    3  A    between atoms: N_7  and  C_18 
REMARK       I    between atoms: N_7  and  C_24 
REMARK    4  A    between atoms: C_13  and  C_15 
REMARK    5  A    between atoms: C_15  and  C_16 
REMARK    6  A    between atoms: C_16  and  C_17 
REMARK    7  A    between atoms: C_17  and  C_24 
REMARK    8  A    between atoms: C_17  and  C_25 
REMARK    9  A    between atoms: C_21  and  C_28 
REMARK   10  A    between atoms: C_25  and  C_30 
ROOT
HETATM    1  O   MK1     0      10.276  23.263   4.886  0.00  0.00    -0.221 OA
HETATM    2  C   MK1     0      10.616  24.759   4.755  0.00  0.00     0.178 C 
ENDROOT
BRANCH   2   3
HETATM    3  C   MK1     0       9.698  25.690   3.941  0.00  0.00     0.135 C 
BRANCH   3   4
HETATM    4  N   MK1     0       8.216  25.324   3.740  0.00  0.00    -0.339 N 
HETATM    5  C   MK1     0       7.122  26.093   4.504  0.00  0.00     0.123 A 
HETATM    6  C   MK1     0       5.639  25.727   4.304  0.00  0.00     0.108 A 
HETATM    7  C   MK1     0       7.511  27.228   5.471  0.00  0.00     0.227 A 
HETATM    8  N   MK1     0       5.251  24.592   3.337  0.00  0.00    -0.339 N 
HETATM    9  C   MK1     0       5.342  26.532   5.035  0.00  0.00    -0.089 A 
HETATM   10  C   MK1     0       6.345  23.824   2.573  0.00  0.00     0.126 A 
HETATM   11  C   MK1     0       7.827  24.190   2.774  0.00  0.00     0.126 A 
HETATM   12  C   MK1     0       4.935  27.631   6.034  0.00  0.00     0.134 A 
HETATM   13  N   MK1     0       6.417  27.997   6.236  0.00  0.00    -0.237 NA
HETATM   14  C   MK1     0       4.528  28.730   7.034  0.00  0.00     0.037 C 
HETATM   15  C   MK1     0       3.452  27.265   5.833  0.00  0.00     0.037 C 
HETATM   16  O   MK1     0       8.993  27.593   5.672  0.00  0.00    -0.168 OA
BRANCH   8  17
HETATM   17  C   MK1     0       3.768  24.227   3.136  0.00  0.00     0.104 C 
BRANCH  17  18
HETATM   18  C   MK1     0       3.340  22.749   3.080  0.00  0.00     0.046 A 
HETATM   19  C   MK1     0       3.788  21.775   4.185  0.00  0.00     0.006 A 
HETATM   20  C   MK1     0       3.361  20.297   4.130  0.00  0.00     0.026 A 
HETATM   21  C   MK1     0       2.485  19.792   2.968  0.00  0.00     0.120 A 
HETATM   22  N   MK1     0       2.037  20.766   1.862  0.00  0.00    -0.295 NA
HETATM   23  C   MK1     0       2.465  22.244   1.918  0.00  0.00     0.122 A 
ENDBRANCH  17  18
ENDBRANCH   8  17
ENDBRANCH   3   4
ENDBRANCH   2   3
BRANCH   2  24
HETATM   24  C   MK1     0      11.875  25.325   5.438  0.00  0.00     0.061 C 
BRANCH  24  25
HETATM   25  C   MK1     0      12.427  24.658   6.711  0.00  0.00     0.002 C 
BRANCH  25  26
HETATM   26  C   MK1     0      13.159  23.306   6.616  0.00  0.00     0.205 C 
HETATM   27  O   MK1     0      12.449  22.014   7.062  0.00  0.00    -0.170 OA
HETATM   28  N   MK1     0      14.601  23.246   6.077  0.00  0.00    -0.219 NA
BRANCH  28  29
HETATM   29  C   MK1     0      15.332  21.895   5.983  0.00  0.00     0.100 A 
HETATM   30  C   MK1     0      16.203  21.266   7.074  0.00  0.00     0.130 A 
HETATM   31  O   MK1     0      16.499  21.875   8.457  0.00  0.00    -0.193 OA
HETATM   32  C   MK1     0      16.727  19.926   6.550  0.00  0.00     0.077 A 
HETATM   33  C   MK1     0      16.182  19.723   5.134  0.00  0.00    -0.040 A 
HETATM   34  C   MK1     0      15.316  20.946   4.782  0.00  0.00    -0.010 A 
HETATM   35  C   MK1     0      16.359  18.584   4.112  0.00  0.00     0.022 A 
HETATM   36  C   MK1     0      14.626  21.030   3.407  0.00  0.00     0.027 A 
HETATM   37  C   MK1     0      14.802  19.891   2.385  0.00  0.00     0.005 A 
HETATM   38  C   MK1     0      15.669  18.668   2.738  0.00  0.00     0.005 A 
ENDBRANCH  28  29
ENDBRANCH  25  26
BRANCH  25  39
HETATM   39  C   MK1     0      12.247  25.341   8.080  0.00  0.00     0.026 C 
BRANCH  39  40
HETATM   40  C   MK1     0      10.907  26.010   8.436  0.00  0.00     0.004 A 
HETATM   41  C   MK1     0       9.612  25.177   8.457  0.00  0.00     0.000 A 
HETATM   42  C   MK1     0       8.271  25.846   8.814  0.00  0.00     0.000 A 
HETATM   43  C   MK1     0       8.225  27.348   9.150  0.00  0.00     0.000 A 
HETATM   44  C   MK1     0       9.521  28.182   9.129  0.00  0.00     0.000 A 
HETATM   45  C   MK1     0      10.861  27.512   8.772  0.00  0.00     0.000 A 
ENDBRANCH  39  40
ENDBRANCH  25  39
ENDBRANCH  24  25
ENDBRANCH   2  24
TORSDOF 10
ENDMDL
MODEL 3
REMARK VINA RESULT:   -10.316      2.383      5.312
REMARK INTER + INTRA:         -18.449
REMARK INTER:                 -16.344
REMARK INTRA:                  -2.105
REMARK UNBOUND:                -2.102
REMARK  10 active torsions:
REMARK  status: ('A' for Active; 'I' for Inactive)
REMARK    1  A    between atoms: N_5  and  C_13 
REMARK    2  A    between atoms: N_6  and  C_21 
REMARK    3  A    between atoms: N_7  and  C_18 
REMARK       I    between atoms: N_7  and  C_24 
REMARK    4  A    between atoms: C_13  and  C_15 
REMARK    5  A    between atoms: C_15  and  C_16 
REMARK    6  A    between atoms: C_16  and  C_17 
REMARK    7  A    between atoms: C_17  and  C_24 
REMARK    8  A    between atoms: C_17  and  C_25 
REMARK    9  A    between atoms: C_21  and  C_28 
REMARK   10  A    between atoms: C_25  and  C_30 
ROOT
HETATM    1  O   MK1     0       9.970  23.203   2.060  0.00  0.00    -0.221 OA
HETATM    2  C   MK1     0      10.304  24.561   2.704  0.00  0.00     0.178 C 
ENDROOT
BRANCH   2   3
HETATM    3  C   MK1     0       9.319  25.738   2.575  0.00  0.00     0.135 C 
BRANCH   3   4
HETATM    4  N   MK1     0       8.460  26.157   3.782  0.00  0.00    -0.339 N 
HETATM    5  C   MK1     0       6.960  25.809   3.818  0.00  0.00     0.123 A 
HETATM    6  C   MK1     0       6.100  26.228   5.025  0.00  0.00     0.108 A 
HETATM    7  C   MK1     0       6.319  25.041   2.646  0.00  0.00     0.227 A 
HETATM    8  N   MK1     0       6.741  26.996   6.196  0.00  0.00    -0.339 N 
HETATM    9  C   MK1     0       5.196  25.756   4.545  0.00  0.00    -0.089 A 
HETATM   10  C   MK1     0       8.240  27.344   6.160  0.00  0.00     0.126 A 
HETATM   11  C   MK1     0       9.099  26.925   4.953  0.00  0.00     0.126 A 
HETATM   12  C   MK1     0       3.961  25.112   3.889  0.00  0.00     0.134 A 
HETATM   13  N   MK1     0       4.819  24.692   2.682  0.00  0.00    -0.237 NA
HETATM   14  C   MK1     0       2.724  24.467   3.233  0.00  0.00     0.037 C 
HETATM   15  C   MK1     0       3.101  25.531   5.096  0.00  0.00     0.037 C 
HETATM   16  O   MK1     0       7.179  24.621   1.439  0.00  0.00    -0.168 OA
BRANCH   8  17
HETATM   17  C   MK1     0       5.881  27.415   7.403  0.00  0.00     0.104 C 
BRANCH  17  18
HETATM   18  C   MK1     0       4.606  28.252   7.187  0.00  0.00     0.046 A 
HETATM   19  C   MK1     0       4.650  29.503   6.290  0.00  0.00     0.006 A 
HETATM   20  C   MK1     0       3.376  30.341   6.073  0.00  0.00     0.026 A 
HETATM   21  C   MK1     0       2.057  29.927   6.753  0.00  0.00     0.120 A 
HETATM   22  N   MK1     0       2.014  28.676   7.651  0.00  0.00    -0.295 NA
HETATM   23  C   MK1     0       3.288  27.839   7.867  0.00  0.00     0.122 A 
ENDBRANCH  17  18
ENDBRANCH   8  17
ENDBRANCH   3   4
ENDBRANCH   2   3
BRANCH   2  24
HETATM   24  C   MK1     0      11.624  24.744   3.475  0.00  0.00     0.061 C 
BRANCH  24  25
HETATM   25  C   MK1     0      11.905  23.899   4.732  0.00  0.00     0.002 C 
BRANCH  25  26
HETATM   26  C   MK1     0      13.257  23.177   4.888  0.00  0.00     0.205 C 
HETATM   27  O   MK1     0      14.557  23.995   5.003  0.00  0.00    -0.170 OA
HETATM   28  N   MK1     0      13.308  21.639   4.929  0.00  0.00    -0.219 NA
BRANCH  28  29
HETATM   29  C   MK1     0      14.659  20.918   5.085  0.00  0.00     0.100 A 
HETATM   30  C   MK1     0      15.536  20.912   6.340  0.00  0.00     0.130 A 
HETATM   31  O   MK1     0      15.220  21.628   7.667  0.00  0.00    -0.193 OA
HETATM   32  C   MK1     0      16.782  20.072   6.046  0.00  0.00     0.077 A 
HETATM   33  C   MK1     0      16.679  19.555   4.609  0.00  0.00    -0.040 A 
HETATM   34  C   MK1     0      15.361  20.081   4.012  0.00  0.00    -0.010 A 
HETATM   35  C   MK1     0      17.613  18.673   3.759  0.00  0.00     0.022 A 
HETATM   36  C   MK1     0      14.975  19.723   2.564  0.00  0.00     0.027 A 
HETATM   37  C   MK1     0      15.908  18.841   1.714  0.00  0.00     0.005 A 
HETATM   38  C   MK1     0      17.227  18.316   2.311  0.00  0.00     0.005 A 
ENDBRANCH  28  29
ENDBRANCH  25  26
BRANCH  25  39
HETATM   39  C   MK1     0      10.835  23.776   5.833  0.00  0.00     0.026 C 
BRANCH  39  40
HETATM   40  C   MK1     0      10.990  24.561   7.149  0.00  0.00     0.004 A 
HETATM   41  C   MK1     0      12.334  25.227   7.494  0.00  0.00     0.000 A 
HETATM   42  C   MK1     0      12.489  26.012   8.810  0.00  0.00     0.000 A 
HETATM   43  C   MK1     0      11.300  26.131   9.781  0.00  0.00     0.000 A 
HETATM   44  C   MK1     0       9.954  25.464   9.435  0.00  0.00     0.000 A 
HETATM   45  C   MK1     0       9.800  24.680   8.119  0.00  0.00     0.000 A 
ENDBRANCH  39  40
ENDBRANCH  25  39
ENDBRANCH  24  25
ENDBRANCH   2  24
TORSDOF 10
ENDMDL
MODEL 4
REMARK VINA RESULT:   -10.170      2.118     11.743
REMARK INTER + INTRA:         -18.216
REMARK INTER:                 -15.983
REMARK INTRA:                  -2.233
REMARK UNBOUND:                -2.102
REMARK  10 active torsions:
REMARK  status: ('A' for Active; 'I' for Inactive)
REMARK    1  A    between atoms: N_5  and  C_13 
REMARK    2  A    between atoms: N_6  and  C_21 
REMARK    3  A    between atoms: N_7  and  C_18 
REMARK       I    between atoms: N_7  and  C_24 
REMARK    4  A    between atoms: C_13  and  C_15 
REMARK    5  A    between atoms: C_15  and  C_16 
REMARK    6  A    between atoms: C_16  and  C_17 
REMARK    7  A    between atoms: C_17  and  C_24 
REMARK    8  A    between atoms: C_17  and  C_25 
REMARK    9  A    between atoms: C_21  and  C_28 
REMARK   10  A    between atoms: C_25  and  C_30 
ROOT
HETATM    1  O   MK1     0      13.685  24.803   8.128  0.00  0.00    -0.221 OA
HETATM    2  C   MK1     0      13.456  24.032   6.814  0.00  0.00     0.178 C 
ENDROOT
BRANCH   2   3
HETATM    3  C   MK1     0      13.470  22.492   6.813  0.00  0.00     0.135 C 
BRANCH   3   4
HETATM    4  N   MK1     0      14.693  21.733   7.359  0.00  0.00    -0.339 N 
HETATM    5  C   MK1     0      15.554  20.877   6.412  0.00  0.00     0.123 A 
HETATM    6  C   MK1     0      16.777  20.117   6.958  0.00  0.00     0.108 A 
HETATM    7  C   MK1     0      15.191  20.780   4.918  0.00  0.00     0.227 A 
HETATM    8  N   MK1     0      17.140  20.215   8.452  0.00  0.00    -0.339 N 
HETATM    9  C   MK1     0      16.988  19.715   5.926  0.00  0.00    -0.089 A 
HETATM   10  C   MK1     0      16.279  21.071   9.399  0.00  0.00     0.126 A 
HETATM   11  C   MK1     0      15.056  21.830   8.852  0.00  0.00     0.126 A 
HETATM   12  C   MK1     0      17.275  19.165   4.517  0.00  0.00     0.134 A 
HETATM   13  N   MK1     0      16.052  19.924   3.970  0.00  0.00    -0.237 NA
HETATM   14  C   MK1     0      17.563  18.614   3.107  0.00  0.00     0.037 C 
HETATM   15  C   MK1     0      18.499  18.405   5.063  0.00  0.00     0.037 C 
HETATM   16  O   MK1     0      13.967  21.539   4.372  0.00  0.00    -0.168 OA
BRANCH   8  17
HETATM   17  C   MK1     0      18.363  19.455   8.997  0.00  0.00     0.104 C 
BRANCH  17  18
HETATM   18  C   MK1     0      18.193  18.043   9.588  0.00  0.00     0.046 A 
HETATM   19  C   MK1     0      17.344  17.837  10.857  0.00  0.00     0.006 A 
HETATM   20  C   MK1     0      17.172  16.426  11.448  0.00  0.00     0.026 A 
HETATM   21  C   MK1     0      17.850  15.220  10.771  0.00  0.00     0.120 A 
HETATM   22  N   MK1     0      18.699  15.426   9.503  0.00  0.00    -0.295 NA
HETATM   23  C   MK1     0      18.870  16.838   8.912  0.00  0.00     0.122 A 
ENDBRANCH  17  18
ENDBRANCH   8  17
ENDBRANCH   3   4
ENDBRANCH   2   3
BRANCH   2  24
HETATM   24  C   MK1     0      13.213  24.801   5.503  0.00  0.00     0.061 C 
BRANCH  24  25
HETATM   25  C   MK1     0      11.789  24.910   4.926  0.00  0.00     0.002 C 
BRANCH  25  26
HETATM   26  C   MK1     0      10.621  25.339   5.834  0.00  0.00     0.205 C 
HETATM   27  O   MK1     0      10.042  24.349   6.862  0.00  0.00    -0.170 OA
HETATM   28  N   MK1     0      10.033  26.757   5.714  0.00  0.00    -0.219 NA
BRANCH  28  29
HETATM   29  C   MK1     0       8.866  27.186   6.622  0.00  0.00     0.100 A 
HETATM   30  C   MK1     0       8.989  27.732   8.047  0.00  0.00     0.130 A 
HETATM   31  O   MK1     0      10.302  27.948   8.822  0.00  0.00    -0.193 OA
HETATM   32  C   MK1     0       7.579  28.025   8.567  0.00  0.00     0.077 A 
HETATM   33  C   MK1     0       6.580  27.662   7.466  0.00  0.00    -0.040 A 
HETATM   34  C   MK1     0       7.380  27.140   6.257  0.00  0.00    -0.010 A 
HETATM   35  C   MK1     0       5.043  27.735   7.398  0.00  0.00     0.022 A 
HETATM   36  C   MK1     0       6.642  26.692   4.981  0.00  0.00     0.027 A 
HETATM   37  C   MK1     0       5.105  26.766   4.914  0.00  0.00     0.005 A 
HETATM   38  C   MK1     0       4.306  27.287   6.123  0.00  0.00     0.005 A 
ENDBRANCH  28  29
ENDBRANCH  25  26
BRANCH  25  39
HETATM   39  C   MK1     0      11.532  24.590   3.442  0.00  0.00     0.026 C 
BRANCH  39  40
HETATM   40  C   MK1     0      10.089  24.485   2.915  0.00  0.00     0.004 A 
HETATM   41  C   MK1     0       9.301  23.172   3.083  0.00  0.00     0.000 A 
HETATM   42  C   MK1     0       7.857  23.067   2.557  0.00  0.00     0.000 A 
HETATM   43  C   MK1     0       7.201  24.276   1.863  0.00  0.00     0.000 A 
HETATM   44  C   MK1     0       7.989  25.589   1.695  0.00  0.00     0.000 A 
HETATM   45  C   MK1     0       9.432  25.693   2.221  0.00  0.00     0.000 A 
ENDBRANCH  39  40
ENDBRANCH  25  39
ENDBRANCH  24  25
ENDBRANCH   2  24
TORSDOF 10
ENDMDL
MODEL 5
REMARK VINA RESULT:    -9.882      2.080      4.308
REMARK INTER + INTRA:         -17.760
REMARK INTER:                 -15.897
REMARK INTRA:                  -1.864
REMARK UNBOUND:                -2.102
REMARK  10 active torsions:
REMARK  status: ('A' for Active; 'I' for Inactive)
REMARK    1  A    between atoms: N_5  and  C_13 
REMARK    2  A    between atoms: N_6  and  C_21 
REMARK    3  A    between atoms: N_7  and  C_18 
REMARK       I    between atoms: N_7  and  C_24 
REMARK    4  A    between atoms: C_13  and  C_15 
REMARK    5  A    between atoms: C_15  and  C_16 
REMARK    6  A    between atoms: C_16  and  C_17 
REMARK    7  A    between atoms: C_17  and  C_24 
REMARK    8  A    between atoms: C_17  and  C_25 
REMARK    9  A    between atoms: C_21  and  C_28 
REMARK   10  A    between atoms: C_25  and  C_30 
ROOT
HETATM    1  O   MK1     0      11.227  24.119   1.797  0.00  0.00    -0.221 OA
HETATM    2  C   MK1     0      10.785  24.372   3.250  0.00  0.00     0.178 C 
ENDROOT
BRANCH   2   3
HETATM    3  C   MK1     0       9.760  25.479   3.562  0.00  0.00     0.135 C 
BRANCH   3   4
HETATM    4  N   MK1     0       8.253  25.177   3.477  0.00  0.00    -0.339 N 
HETATM    5  C   MK1     0       7.257  25.984   4.331  0.00  0.00     0.123 A 
HETATM    6  C   MK1     0       5.749  25.683   4.246  0.00  0.00     0.108 A 
HETATM    7  C   MK1     0       7.768  27.092   5.270  0.00  0.00     0.227 A 
HETATM    8  N   MK1     0       5.237  24.574   3.306  0.00  0.00    -0.339 N 
HETATM    9  C   MK1     0       5.544  26.492   5.004  0.00  0.00    -0.089 A 
HETATM   10  C   MK1     0       6.233  23.768   2.452  0.00  0.00     0.126 A 
HETATM   11  C   MK1     0       7.740  24.070   2.538  0.00  0.00     0.126 A 
HETATM   12  C   MK1     0       5.265  27.597   6.039  0.00  0.00     0.134 A 
HETATM   13  N   MK1     0       6.773  27.899   6.124  0.00  0.00    -0.237 NA
HETATM   14  C   MK1     0       4.985  28.703   7.075  0.00  0.00     0.037 C 
HETATM   15  C   MK1     0       3.757  27.296   5.954  0.00  0.00     0.037 C 
HETATM   16  O   MK1     0       9.277  27.393   5.355  0.00  0.00    -0.168 OA
BRANCH   8  17
HETATM   17  C   MK1     0       3.729  24.274   3.222  0.00  0.00     0.104 C 
BRANCH  17  18
HETATM   18  C   MK1     0       2.816  25.153   2.346  0.00  0.00     0.046 A 
HETATM   19  C   MK1     0       3.425  26.023   1.231  0.00  0.00     0.006 A 
HETATM   20  C   MK1     0       2.514  26.903   0.356  0.00  0.00     0.026 A 
HETATM   21  C   MK1     0       0.991  26.912   0.595  0.00  0.00     0.120 A 
HETATM   22  N   MK1     0       0.383  26.041   1.711  0.00  0.00    -0.295 NA
HETATM   23  C   MK1     0       1.295  25.162   2.586  0.00  0.00     0.122 A 
ENDBRANCH  17  18
ENDBRANCH   8  17
ENDBRANCH   3   4
ENDBRANCH   2   3
BRANCH   2  24
HETATM   24  C   MK1     0      11.367  23.519   4.392  0.00  0.00     0.061 C 
BRANCH  24  25
HETATM   25  C   MK1     0      12.595  24.017   5.177  0.00  0.00     0.002 C 
BRANCH  25  26
HETATM   26  C   MK1     0      13.895  23.190   5.178  0.00  0.00     0.205 C 
HETATM   27  O   MK1     0      15.259  23.903   5.120  0.00  0.00    -0.170 OA
HETATM   28  N   MK1     0      13.831  21.653   5.238  0.00  0.00    -0.219 NA
BRANCH  28  29
HETATM   29  C   MK1     0      15.130  20.827   5.239  0.00  0.00     0.100 A 
HETATM   30  C   MK1     0      16.135  20.734   6.392  0.00  0.00     0.130 A 
HETATM   31  O   MK1     0      16.021  21.449   7.751  0.00  0.00    -0.193 OA
HETATM   32  C   MK1     0      17.271  19.805   5.957  0.00  0.00     0.077 A 
HETATM   33  C   MK1     0      16.974  19.322   4.535  0.00  0.00    -0.040 A 
HETATM   34  C   MK1     0      15.644  19.957   4.089  0.00  0.00    -0.010 A 
HETATM   35  C   MK1     0      17.738  18.385   3.580  0.00  0.00     0.022 A 
HETATM   36  C   MK1     0      15.077  19.655   2.689  0.00  0.00     0.027 A 
HETATM   37  C   MK1     0      15.841  18.718   1.735  0.00  0.00     0.005 A 
HETATM   38  C   MK1     0      17.171  18.083   2.180  0.00  0.00     0.005 A 
ENDBRANCH  28  29
ENDBRANCH  25  26
BRANCH  25  39
HETATM   39  C   MK1     0      12.524  25.341   5.960  0.00  0.00     0.026 C 
BRANCH  39  40
HETATM   40  C   MK1     0      11.722  25.417   7.272  0.00  0.00     0.004 A 
HETATM   41  C   MK1     0      10.278  24.885   7.324  0.00  0.00     0.000 A 
HETATM   42  C   MK1     0       9.475  24.962   8.636  0.00  0.00     0.000 A 
HETATM   43  C   MK1     0      10.116  25.570   9.897  0.00  0.00     0.000 A 
HETATM   44  C   MK1     0      11.561  26.103   9.845  0.00  0.00     0.000 A 
HETATM   45  C   MK1     0      12.363  26.026   8.533  0.00  0.00     0.000 A 
ENDBRANCH  39  40
ENDBRANCH  25  39
ENDBRANCH  24  25
ENDBRANCH   2  24
TORSDOF 10
ENDMDL
MODEL 6
REMARK VINA RESULT:    -9.835      2.491     10.739
REMARK INTER + INTRA:         -17.686
REMARK INTER:                 -15.890
REMARK INTRA:                  -1.795
REMARK UNBOUND:                -2.102
REMARK  10 active torsions:
REMARK  status: ('A' for Active; 'I' for Inactive)
REMARK    1  A    between atoms: N_5  and  C_13 
REMARK    2  A    between atoms: N_6  and  C_21 
REMARK    3  A    between atoms: N_7  and  C_18 
REMARK       I    between atoms: N_7  and  C_24 
REMARK    4  A    between atoms: C_13  and  C_15 
REMARK    5  A    between atoms: C_15  and  C_16 
REMARK    6  A    between atoms: C_16  and  C_17 
REMARK    7  A    between atoms: C_17  and  C_24 
REMARK    8  A    between atoms: C_17  and  C_25 
REMARK    9  A    between atoms: C_21  and  C_28 
REMARK   10  A    between atoms: C_25  and  C_30 
ROOT
HETATM    1  O   MK1     0      15.762  23.105   9.634  0.00  0.00    -0.221 OA
HETATM    2  C   MK1     0      14.915  23.113   8.348  0.00  0.00     0.178 C 
ENDROOT
BRANCH   2   3
HETATM    3  C   MK1     0      14.591  21.788   7.631  0.00  0.00     0.135 C 
BRANCH   3   4
HETATM    4  N   MK1     0      15.730  20.833   7.229  0.00  0.00    -0.339 N 
HETATM    5  C   MK1     0      15.818  20.306   5.784  0.00  0.00     0.123 A 
HETATM    6  C   MK1     0      16.957  19.351   5.381  0.00  0.00     0.108 A 
HETATM    7  C   MK1     0      14.767  20.734   4.743  0.00  0.00     0.227 A 
HETATM    8  N   MK1     0      18.008  18.923   6.422  0.00  0.00    -0.339 N 
HETATM    9  C   MK1     0      16.550  19.309   4.330  0.00  0.00    -0.089 A 
HETATM   10  C   MK1     0      17.919  19.450   7.867  0.00  0.00     0.126 A 
HETATM   11  C   MK1     0      16.781  20.405   8.269  0.00  0.00     0.126 A 
HETATM   12  C   MK1     0      15.994  19.252   2.896  0.00  0.00     0.134 A 
HETATM   13  N   MK1     0      14.855  20.207   3.298  0.00  0.00    -0.237 NA
HETATM   14  C   MK1     0      15.438  19.195   1.460  0.00  0.00     0.037 C 
HETATM   15  C   MK1     0      17.133  18.297   2.492  0.00  0.00     0.037 C 
HETATM   16  O   MK1     0      13.628  21.689   5.146  0.00  0.00    -0.168 OA
BRANCH   8  17
HETATM   17  C   MK1     0      19.146  17.968   6.019  0.00  0.00     0.104 C 
BRANCH  17  18
HETATM   18  C   MK1     0      19.143  16.511   6.518  0.00  0.00     0.046 A 
HETATM   19  C   MK1     0      19.157  15.350   5.506  0.00  0.00     0.006 A 
HETATM   20  C   MK1     0      19.153  13.893   6.003  0.00  0.00     0.026 A 
HETATM   21  C   MK1     0      19.135  13.597   7.515  0.00  0.00     0.120 A 
HETATM   22  N   MK1     0      19.121  14.757   8.528  0.00  0.00    -0.295 NA
HETATM   23  C   MK1     0      19.125  16.214   8.028  0.00  0.00     0.122 A 
ENDBRANCH  17  18
ENDBRANCH   8  17
ENDBRANCH   3   4
ENDBRANCH   2   3
BRANCH   2  24
HETATM   24  C   MK1     0      14.391  24.443   7.778  0.00  0.00     0.061 C 
BRANCH  24  25
HETATM   25  C   MK1     0      12.887  24.768   7.836  0.00  0.00     0.002 C 
BRANCH  25  26
HETATM   26  C   MK1     0      11.958  24.324   6.690  0.00  0.00     0.205 C 
HETATM   27  O   MK1     0      11.165  23.009   6.809  0.00  0.00    -0.170 OA
HETATM   28  N   MK1     0      11.823  25.195   5.427  0.00  0.00    -0.219 NA
BRANCH  28  29
HETATM   29  C   MK1     0      10.895  24.751   4.282  0.00  0.00     0.100 A 
HETATM   30  C   MK1     0      11.277  23.830   3.120  0.00  0.00     0.130 A 
HETATM   31  O   MK1     0      12.658  23.186   2.893  0.00  0.00    -0.193 OA
HETATM   32  C   MK1     0      10.048  23.660   2.223  0.00  0.00     0.077 A 
HETATM   33  C   MK1     0       8.902  24.476   2.827  0.00  0.00    -0.040 A 
HETATM   34  C   MK1     0       9.428  25.153   4.106  0.00  0.00    -0.010 A 
HETATM   35  C   MK1     0       7.443  24.695   2.384  0.00  0.00     0.022 A 
HETATM   36  C   MK1     0       8.495  26.050   4.942  0.00  0.00     0.027 A 
HETATM   37  C   MK1     0       7.036  26.269   4.499  0.00  0.00     0.005 A 
HETATM   38  C   MK1     0       6.510  25.591   3.220  0.00  0.00     0.005 A 
ENDBRANCH  28  29
ENDBRANCH  25  26
BRANCH  25  39
HETATM   39  C   MK1     0      12.310  25.536   9.041  0.00  0.00     0.026 C 
BRANCH  39  40
HETATM   40  C   MK1     0      10.899  26.148   8.959  0.00  0.00     0.004 A 
HETATM   41  C   MK1     0      10.726  27.673   8.842  0.00  0.00     0.000 A 
HETATM   42  C   MK1     0       9.315  28.285   8.761  0.00  0.00     0.000 A 
HETATM   43  C   MK1     0       8.076  27.370   8.797  0.00  0.00     0.000 A 
HETATM   44  C   MK1     0       8.249  25.844   8.914  0.00  0.00     0.000 A 
HETATM   45  C   MK1     0       9.660  25.233   8.995  0.00  0.00     0.000 A 
ENDBRANCH  39  40
ENDBRANCH  25  39
ENDBRANCH  24  25
ENDBRANCH   2  24
TORSDOF 10
ENDMDL
MODEL 7
REMARK VINA RESULT:    -9.695      1.580      3.320
REMARK INTER + INTRA:         -17.464
REMARK INTER:                 -15.994
REMARK INTRA:                  -1.470
REMARK UNBOUND:                -2.102
REMARK  10 active torsions:
REMARK  status: ('A' for Active; 'I' for Inactive)
REMARK    1  A    between atoms: N_5  and  C_13 
REMARK    2  A    between atoms: N_6  and  C_21 
REMARK    3  A    between atoms: N_7  and  C_18 
REMARK       I    between atoms: N_7  and  C_24 
REMARK    4  A    between atoms: C_13  and  C_15 
REMARK    5  A    between atoms: C_15  and  C_16 
REMARK    6  A    between atoms: C_16  and  C_17 
REMARK    7  A    between atoms: C_17  and  C_24 
REMARK    8  A    between atoms: C_17  and  C_25 
REMARK    9  A    between atoms: C_21  and  C_28 
REMARK   10  A    between atoms: C_25  and  C_30 
ROOT
HETATM    1  O   MK1     0      12.043  25.773   9.488  0.00  0.00    -0.221 OA
HETATM    2  C   MK1     0      12.440  25.054   8.186  0.00  0.00     0.178 C 
ENDROOT
BRANCH   2   3
HETATM    3  C   MK1     0      11.351  24.513   7.241  0.00  0.00     0.135 C 
BRANCH   3   4
HETATM    4  N   MK1     0      10.125  25.382   6.904  0.00  0.00    -0.339 N 
HETATM    5  C   MK1     0       9.304  25.096   5.633  0.00  0.00     0.123 A 
HETATM    6  C   MK1     0       8.078  25.964   5.295  0.00  0.00     0.108 A 
HETATM    7  C   MK1     0       9.709  23.939   4.699  0.00  0.00     0.227 A 
HETATM    8  N   MK1     0       7.673  27.121   6.229  0.00  0.00    -0.339 N 
HETATM    9  C   MK1     0       7.902  25.354   4.364  0.00  0.00    -0.089 A 
HETATM   10  C   MK1     0       8.495  27.407   7.500  0.00  0.00     0.126 A 
HETATM   11  C   MK1     0       9.720  26.539   7.837  0.00  0.00     0.126 A 
HETATM   12  C   MK1     0       7.662  24.522   3.091  0.00  0.00     0.134 A 
HETATM   13  N   MK1     0       8.888  23.652   3.428  0.00  0.00    -0.237 NA
HETATM   14  C   MK1     0       7.422  23.688   1.818  0.00  0.00     0.037 C 
HETATM   15  C   MK1     0       6.436  25.390   2.753  0.00  0.00     0.037 C 
HETATM   16  O   MK1     0      10.935  23.071   5.038  0.00  0.00    -0.168 OA
BRANCH   8  17
HETATM   17  C   MK1     0       6.448  27.990   5.891  0.00  0.00     0.104 C 
BRANCH  17  18
HETATM   18  C   MK1     0       5.053  27.586   6.404  0.00  0.00     0.046 A 
HETATM   19  C   MK1     0       4.269  26.462   5.701  0.00  0.00     0.006 A 
HETATM   20  C   MK1     0       2.874  26.058   6.213  0.00  0.00     0.026 A 
HETATM   21  C   MK1     0       2.263  26.779   7.430  0.00  0.00     0.120 A 
HETATM   22  N   MK1     0       3.047  27.903   8.134  0.00  0.00    -0.295 NA
HETATM   23  C   MK1     0       4.442  28.306   7.620  0.00  0.00     0.122 A 
ENDBRANCH  17  18
ENDBRANCH   8  17
ENDBRANCH   3   4
ENDBRANCH   2   3
BRANCH   2  24
HETATM   24  C   MK1     0      13.927  24.873   7.829  0.00  0.00     0.061 C 
BRANCH  24  25
HETATM   25  C   MK1     0      14.536  23.461   7.756  0.00  0.00     0.002 C 
BRANCH  25  26
HETATM   26  C   MK1     0      14.874  22.838   6.389  0.00  0.00     0.205 C 
HETATM   27  O   MK1     0      15.346  23.736   5.230  0.00  0.00    -0.170 OA
HETATM   28  N   MK1     0      14.741  21.317   6.180  0.00  0.00    -0.219 NA
BRANCH  28  29
HETATM   29  C   MK1     0      15.079  20.695   4.814  0.00  0.00     0.100 A 
HETATM   30  C   MK1     0      14.353  20.975   3.494  0.00  0.00     0.130 A 
HETATM   31  O   MK1     0      13.158  21.927   3.303  0.00  0.00    -0.193 OA
HETATM   32  C   MK1     0      15.023  20.142   2.398  0.00  0.00     0.077 A 
HETATM   33  C   MK1     0      16.164  19.346   3.035  0.00  0.00    -0.040 A 
HETATM   34  C   MK1     0      16.199  19.689   4.536  0.00  0.00    -0.010 A 
HETATM   35  C   MK1     0      17.182  18.349   2.450  0.00  0.00     0.022 A 
HETATM   36  C   MK1     0      17.251  19.036   5.451  0.00  0.00     0.027 A 
HETATM   37  C   MK1     0      18.269  18.039   4.866  0.00  0.00     0.005 A 
HETATM   38  C   MK1     0      18.235  17.695   3.365  0.00  0.00     0.005 A 
ENDBRANCH  28  29
ENDBRANCH  25  26
BRANCH  25  39
HETATM   39  C   MK1     0      14.807  22.671   9.050  0.00  0.00     0.026 C 
BRANCH  39  40
HETATM   40  C   MK1     0      16.108  21.859   9.198  0.00  0.00     0.004 A 
HETATM   41  C   MK1     0      17.447  22.459   8.732  0.00  0.00     0.000 A 
HETATM   42  C   MK1     0      18.748  21.647   8.880  0.00  0.00     0.000 A 
HETATM   43  C   MK1     0      18.709  20.236   9.495  0.00  0.00     0.000 A 
HETATM   44  C   MK1     0      17.368  19.635   9.961  0.00  0.00     0.000 A 
HETATM   45  C   MK1     0      16.069  20.447   9.812  0.00  0.00     0.000 A 
ENDBRANCH  39  40
ENDBRANCH  25  39
ENDBRANCH  24  25
ENDBRANCH   2  24
TORSDOF 10
ENDMDL
MODEL 8
REMARK VINA RESULT:    -9.521      2.378      5.199
REMARK INTER + INTRA:         -17.188
REMARK INTER:                 -14.871
REMARK INTRA:                  -2.317
REMARK UNBOUND:                -2.102
REMARK  10 active torsions:
REMARK  status: ('A' for Active; 'I' for Inactive)
REMARK    1  A    between atoms: N_5  and  C_13 
REMARK    2  A    between atoms: N_6  and  C_21 
REMARK    3  A    between atoms: N_7  and  C_18 
REMARK       I    between atoms: N_7  and  C_24 
REMARK    4  A    between atoms: C_13  and  C_15 
REMARK    5  A    between atoms: C_15  and  C_16 
REMARK    6  A    between atoms: C_16  and  C_17 
REMARK    7  A    between atoms: C_17  and  C_24 
REMARK    8  A    between atoms: C_17  and  C_25 
REMARK    9  A    between atoms: C_21  and  C_28 
REMARK   10  A    between atoms: C_25  and  C_30 
ROOT
HETATM    1  O   MK1     0      10.516  23.223   5.244  0.00  0.00    -0.221 OA
HETATM    2  C   MK1     0      10.831  24.673   4.831  0.00  0.00     0.178 C 
ENDROOT
BRANCH   2   3
HETATM    3  C   MK1     0       9.834  25.459   3.959  0.00  0.00     0.135 C 
BRANCH   3   4
HETATM    4  N   MK1     0       8.578  26.081   4.597  0.00  0.00    -0.339 N 
HETATM    5  C   MK1     0       7.194  25.457   4.340  0.00  0.00     0.123 A 
HETATM    6  C   MK1     0       5.938  26.078   4.978  0.00  0.00     0.108 A 
HETATM    7  C   MK1     0       7.066  24.210   3.444  0.00  0.00     0.227 A 
HETATM    8  N   MK1     0       6.066  27.325   5.874  0.00  0.00    -0.339 N 
HETATM    9  C   MK1     0       5.299  25.287   4.491  0.00  0.00    -0.089 A 
HETATM   10  C   MK1     0       7.450  27.949   6.131  0.00  0.00     0.126 A 
HETATM   11  C   MK1     0       8.706  27.327   5.493  0.00  0.00     0.126 A 
HETATM   12  C   MK1     0       4.426  24.207   3.825  0.00  0.00     0.134 A 
HETATM   13  N   MK1     0       5.682  23.585   3.187  0.00  0.00    -0.237 NA
HETATM   14  C   MK1     0       3.553  23.127   3.159  0.00  0.00     0.037 C 
HETATM   15  C   MK1     0       3.170  24.829   4.464  0.00  0.00     0.037 C 
HETATM   16  O   MK1     0       8.323  23.589   2.806  0.00  0.00    -0.168 OA
BRANCH   8  17
HETATM   17  C   MK1     0       4.810  27.946   6.512  0.00  0.00     0.104 C 
BRANCH  17  18
HETATM   18  C   MK1     0       3.552  28.189   5.657  0.00  0.00     0.046 A 
HETATM   19  C   MK1     0       2.168  27.769   6.187  0.00  0.00     0.006 A 
HETATM   20  C   MK1     0       0.910  28.011   5.333  0.00  0.00     0.026 A 
HETATM   21  C   MK1     0       1.036  28.674   3.948  0.00  0.00     0.120 A 
HETATM   22  N   MK1     0       2.419  29.094   3.418  0.00  0.00    -0.295 NA
HETATM   23  C   MK1     0       3.677  28.851   4.273  0.00  0.00     0.122 A 
ENDBRANCH  17  18
ENDBRANCH   8  17
ENDBRANCH   3   4
ENDBRANCH   2   3
BRANCH   2  24
HETATM   24  C   MK1     0      12.143  25.337   5.288  0.00  0.00     0.061 C 
BRANCH  24  25
HETATM   25  C   MK1     0      13.004  24.671   6.378  0.00  0.00     0.002 C 
BRANCH  25  26
HETATM   26  C   MK1     0      14.113  23.678   5.982  0.00  0.00     0.205 C 
HETATM   27  O   MK1     0      15.251  24.129   5.046  0.00  0.00    -0.170 OA
HETATM   28  N   MK1     0      14.086  22.236   6.523  0.00  0.00    -0.219 NA
BRANCH  28  29
HETATM   29  C   MK1     0      15.195  21.245   6.128  0.00  0.00     0.100 A 
HETATM   30  C   MK1     0      16.342  20.774   7.026  0.00  0.00     0.130 A 
HETATM   31  O   MK1     0      16.587  21.209   8.483  0.00  0.00    -0.193 OA
HETATM   32  C   MK1     0      17.203  19.794   6.224  0.00  0.00     0.077 A 
HETATM   33  C   MK1     0      16.591  19.657   4.827  0.00  0.00    -0.040 A 
HETATM   34  C   MK1     0      15.344  20.558   4.768  0.00  0.00    -0.010 A 
HETATM   35  C   MK1     0      17.003  18.829   3.596  0.00  0.00     0.022 A 
HETATM   36  C   MK1     0      14.508  20.631   3.476  0.00  0.00     0.027 A 
HETATM   37  C   MK1     0      14.920  19.803   2.244  0.00  0.00     0.005 A 
HETATM   38  C   MK1     0      16.167  18.902   2.304  0.00  0.00     0.005 A 
ENDBRANCH  28  29
ENDBRANCH  25  26
BRANCH  25  39
HETATM   39  C   MK1     0      12.757  24.997   7.862  0.00  0.00     0.026 C 
BRANCH  39  40
HETATM   40  C   MK1     0      11.397  25.565   8.310  0.00  0.00     0.004 A 
HETATM   41  C   MK1     0      10.169  24.641   8.405  0.00  0.00     0.000 A 
HETATM   42  C   MK1     0       8.810  25.209   8.852  0.00  0.00     0.000 A 
HETATM   43  C   MK1     0       8.678  26.703   9.205  0.00  0.00     0.000 A 
HETATM   44  C   MK1     0       9.906  27.628   9.110  0.00  0.00     0.000 A 
HETATM   45  C   MK1     0      11.265  27.059   8.663  0.00  0.00     0.000 A 
ENDBRANCH  39  40
ENDBRANCH  25  39
ENDBRANCH  24  25
ENDBRANCH   2  24
TORSDOF 10
ENDMDL
MODEL 9
REMARK VINA RESULT:    -9.183      3.317     11.809
REMARK INTER + INTRA:         -16.653
REMARK INTER:                 -15.021
REMARK INTRA:                  -1.632
REMARK UNBOUND:                -2.102
REMARK  10 active torsions:
REMARK  status: ('A' for Active; 'I' for Inactive)
REMARK    1  A    between atoms: N_5  and  C_13 
REMARK    2  A    between atoms: N_6  and  C_21 
REMARK    3  A    between atoms: N_7  and  C_18 
REMARK       I    between atoms: N_7  and  C_24 
REMARK    4  A    between atoms: C_13  and  C_15 
REMARK    5  A    between atoms: C_15  and  C_16 
REMARK    6  A    between atoms: C_16  and  C_17 
REMARK    7  A    between atoms: C_17  and  C_24 
REMARK    8  A    between atoms: C_17  and  C_25 
REMARK    9  A    between atoms: C_21  and  C_28 
REMARK   10  A    between atoms: C_25  and  C_30 
ROOT
HETATM    1  O   MK1     0       6.909  24.103   1.092  0.00  0.00    -0.221 OA
HETATM    2  C   MK1     0       7.101  24.440   2.582  0.00  0.00     0.178 C 
ENDROOT
BRANCH   2   3
HETATM    3  C   MK1     0       8.182  25.451   3.009  0.00  0.00     0.135 C 
BRANCH   3   4
HETATM    4  N   MK1     0       9.577  24.953   3.430  0.00  0.00    -0.339 N 
HETATM    5  C   MK1     0      10.106  25.249   4.845  0.00  0.00     0.123 A 
HETATM    6  C   MK1     0      11.501  24.751   5.267  0.00  0.00     0.108 A 
HETATM    7  C   MK1     0       9.240  26.043   5.841  0.00  0.00     0.227 A 
HETATM    8  N   MK1     0      12.368  23.956   4.271  0.00  0.00    -0.339 N 
HETATM    9  C   MK1     0      11.358  25.212   6.286  0.00  0.00    -0.089 A 
HETATM   10  C   MK1     0      11.839  23.661   2.856  0.00  0.00     0.126 A 
HETATM   11  C   MK1     0      10.444  24.158   2.435  0.00  0.00     0.126 A 
HETATM   12  C   MK1     0      11.164  25.841   7.677  0.00  0.00     0.134 A 
HETATM   13  N   MK1     0       9.768  26.339   7.257  0.00  0.00    -0.237 NA
HETATM   14  C   MK1     0      10.968  26.471   9.070  0.00  0.00     0.037 C 
HETATM   15  C   MK1     0      12.559  25.343   8.098  0.00  0.00     0.037 C 
HETATM   16  O   MK1     0       7.844  26.541   5.419  0.00  0.00    -0.168 OA
BRANCH   8  17
HETATM   17  C   MK1     0      13.763  23.459   4.693  0.00  0.00     0.104 C 
BRANCH  17  18
HETATM   18  C   MK1     0      14.157  21.987   4.464  0.00  0.00     0.046 A 
HETATM   19  C   MK1     0      14.487  21.490   3.045  0.00  0.00     0.006 A 
HETATM   20  C   MK1     0      14.880  20.019   2.815  0.00  0.00     0.026 A 
HETATM   21  C   MK1     0      14.945  19.045   4.007  0.00  0.00     0.120 A 
HETATM   22  N   MK1     0      14.615  19.542   5.427  0.00  0.00    -0.295 NA
HETATM   23  C   MK1     0      14.222  21.014   5.655  0.00  0.00     0.122 A 
ENDBRANCH  17  18
ENDBRANCH   8  17
ENDBRANCH   3   4
ENDBRANCH   2   3
BRANCH   2  24
HETATM   24  C   MK1     0       6.213  23.769   3.645  0.00  0.00     0.061 C 
BRANCH  24  25
HETATM   25  C   MK1     0       4.716  24.119   3.731  0.00  0.00     0.002 C 
BRANCH  25  26
HETATM   26  C   MK1     0       4.253  25.321   4.575  0.00  0.00     0.205 C 
HETATM   27  O   MK1     0       4.668  26.749   4.173  0.00  0.00    -0.170 OA
HETATM   28  N   MK1     0       3.377  25.096   5.822  0.00  0.00    -0.219 NA
BRANCH  28  29
HETATM   29  C   MK1     0       2.915  26.298   6.665  0.00  0.00     0.100 A 
HETATM   30  C   MK1     0       3.827  27.270   7.421  0.00  0.00     0.130 A 
HETATM   31  O   MK1     0       5.365  27.215   7.469  0.00  0.00    -0.193 OA
HETATM   32  C   MK1     0       2.942  28.305   8.120  0.00  0.00     0.077 A 
HETATM   33  C   MK1     0       1.482  27.977   7.800  0.00  0.00    -0.040 A 
HETATM   34  C   MK1     0       1.465  26.731   6.896  0.00  0.00    -0.010 A 
HETATM   35  C   MK1     0       0.157  28.649   8.210  0.00  0.00     0.022 A 
HETATM   36  C   MK1     0       0.124  26.155   6.403  0.00  0.00     0.027 A 
HETATM   37  C   MK1     0      -1.200  26.826   6.813  0.00  0.00     0.005 A 
HETATM   38  C   MK1     0      -1.183  28.073   7.717  0.00  0.00     0.005 A 
ENDBRANCH  28  29
ENDBRANCH  25  26
BRANCH  25  39
HETATM   39  C   MK1     0       3.680  23.268   2.972  0.00  0.00     0.026 C 
BRANCH  39  40
HETATM   40  C   MK1     0       3.410  21.815   3.407  0.00  0.00     0.004 A 
HETATM   41  C   MK1     0       2.446  20.934   2.592  0.00  0.00     0.000 A 
HETATM   42  C   MK1     0       2.176  19.481   3.027  0.00  0.00     0.000 A 
HETATM   43  C   MK1     0       2.871  18.910   4.277  0.00  0.00     0.000 A 
HETATM   44  C   MK1     0       3.836  19.792   5.092  0.00  0.00     0.000 A 
HETATM   45  C   MK1     0       4.105  21.244   4.657  0.00  0.00     0.000 A 
ENDBRANCH  39  40
ENDBRANCH  25  39
ENDBRANCH  24  25
ENDBRANCH   2  24
TORSDOF 10
ENDMDL
