MODEL 1
REMARK VINA RESULT:    -6.675      0.000      0.000
REMARK INTER + INTRA:         -12.766
REMARK INTER:                 -10.577
REMARK INTRA:                  -2.189
REMARK UNBOUND:                -2.189
REMARK  10 active torsions:
REMARK  status: ('A' for Active; 'I' for Inactive)
REMARK    1  A    between atoms: N_5  and  C_13 
REMARK    2  A    between atoms: N_6  and  C_21 
REMARK    3  A    between atoms: N_7  and  C_18 
REMARK       I    between atoms: N_7  and  C_24 
REMARK    4  A    between atoms: C_13  and  C_15 
REMARK    5  A    between atoms: C_15  and  C_16 
REMARK    6  A    between atoms: C_16  and  C_17 
REMARK    7  A    between atoms: C_17  and  C_24 
REMARK    8  A    between atoms: C_17  and  C_25 
REMARK    9  A    between atoms: C_21  and  C_28 
REMARK   10  A    between atoms: C_25  and  C_30 
ROOT
HETATM    1  O   MK1     0      33.350  35.034  12.213  0.00  0.00    -0.221 OA
HETATM    2  C   MK1     0      32.158  34.989  11.239  0.00  0.00     0.178 C 
ENDROOT
BRANCH   2   3
HETATM    3  C   MK1     0      30.877  35.784  11.553  0.00  0.00     0.135 C 
BRANCH   3   4
HETATM    4  N   MK1     0      30.606  36.272  12.988  0.00  0.00    -0.339 N 
HETATM    5  C   MK1     0      30.585  37.780  13.298  0.00  0.00     0.123 A 
HETATM    6  C   MK1     0      30.314  38.269  14.733  0.00  0.00     0.108 A 
HETATM    7  C   MK1     0      30.833  38.801  12.172  0.00  0.00     0.227 A 
HETATM    8  N   MK1     0      30.066  37.248  15.859  0.00  0.00    -0.339 N 
HETATM    9  C   MK1     0      30.410  39.337  14.388  0.00  0.00    -0.089 A 
HETATM   10  C   MK1     0      30.088  35.739  15.550  0.00  0.00     0.126 A 
HETATM   11  C   MK1     0      30.358  35.252  14.115  0.00  0.00     0.126 A 
HETATM   12  C   MK1     0      30.541  40.797  13.916  0.00  0.00     0.134 A 
HETATM   13  N   MK1     0      30.811  40.310  12.480  0.00  0.00    -0.237 NA
HETATM   14  C   MK1     0      30.672  42.258  13.444  0.00  0.00     0.037 C 
HETATM   15  C   MK1     0      30.270  41.286  15.351  0.00  0.00     0.037 C 
HETATM   16  O   MK1     0      31.103  38.312  10.736  0.00  0.00    -0.168 OA
BRANCH   8  17
HETATM   17  C   MK1     0      29.795  37.736  17.295  0.00  0.00     0.104 C 
BRANCH  17  18
HETATM   18  C   MK1     0      28.370  38.144  17.714  0.00  0.00     0.046 A 
HETATM   19  C   MK1     0      27.985  39.634  17.783  0.00  0.00     0.006 A 
HETATM   20  C   MK1     0      26.561  40.043  18.202  0.00  0.00     0.026 A 
HETATM   21  C   MK1     0      25.521  38.961  18.551  0.00  0.00     0.120 A 
HETATM   22  N   MK1     0      25.906  37.471  18.482  0.00  0.00    -0.295 NA
HETATM   23  C   MK1     0      27.331  37.064  18.063  0.00  0.00     0.122 A 
ENDBRANCH  17  18
ENDBRANCH   8  17
ENDBRANCH   3   4
ENDBRANCH   2   3
BRANCH   2  24
HETATM   24  C   MK1     0      32.247  34.150   9.951  0.00  0.00     0.061 C 
BRANCH  24  25
HETATM   25  C   MK1     0      31.184  33.075   9.658  0.00  0.00     0.002 C 
BRANCH  25  26
HETATM   26  C   MK1     0      30.774  32.077  10.757  0.00  0.00     0.205 C 
HETATM   27  O   MK1     0      29.646  32.437  11.742  0.00  0.00    -0.170 OA
HETATM   28  N   MK1     0      31.492  30.719  10.872  0.00  0.00    -0.219 NA
BRANCH  28  29
HETATM   29  C   MK1     0      31.082  29.722  11.971  0.00  0.00     0.100 A 
HETATM   30  C   MK1     0      31.181  29.957  13.481  0.00  0.00     0.130 A 
HETATM   31  O   MK1     0      31.708  31.232  14.164  0.00  0.00    -0.193 OA
HETATM   32  C   MK1     0      30.665  28.703  14.192  0.00  0.00     0.077 A 
HETATM   33  C   MK1     0      30.246  27.689  13.125  0.00  0.00    -0.040 A 
HETATM   34  C   MK1     0      30.505  28.322  11.745  0.00  0.00    -0.010 A 
HETATM   35  C   MK1     0      29.660  26.268  13.222  0.00  0.00     0.022 A 
HETATM   36  C   MK1     0      30.178  27.534  10.463  0.00  0.00     0.027 A 
HETATM   37  C   MK1     0      29.592  26.112  10.560  0.00  0.00     0.005 A 
HETATM   38  C   MK1     0      29.333  25.480  11.940  0.00  0.00     0.005 A 
ENDBRANCH  28  29
ENDBRANCH  25  26
BRANCH  25  39
HETATM   39  C   MK1     0      30.530  32.997   8.266  0.00  0.00     0.026 C 
BRANCH  39  40
HETATM   40  C   MK1     0      30.307  31.629   7.595  0.00  0.00     0.004 A 
HETATM   41  C   MK1     0      31.241  31.165   6.462  0.00  0.00     0.000 A 
HETATM   42  C   MK1     0      31.018  29.797   5.792  0.00  0.00     0.000 A 
HETATM   43  C   MK1     0      29.862  28.891   6.254  0.00  0.00     0.000 A 
HETATM   44  C   MK1     0      28.927  29.355   7.389  0.00  0.00     0.000 A 
HETATM   45  C   MK1     0      29.151  30.723   8.058  0.00  0.00     0.000 A 
ENDBRANCH  39  40
ENDBRANCH  25  39
ENDBRANCH  24  25
ENDBRANCH   2  24
TORSDOF 10
ENDMDL
MODEL 2
REMARK VINA RESULT:    -6.516      3.305      7.157
REMARK INTER + INTRA:         -12.515
REMARK INTER:                  -9.867
REMARK INTRA:                  -2.648
REMARK UNBOUND:                -2.189
REMARK  10 active torsions:
REMARK  status: ('A' for Active; 'I' for Inactive)
REMARK    1  A    between atoms: N_5  and  C_13 
REMARK    2  A    between atoms: N_6  and  C_21 
REMARK    3  A    between atoms: N_7  and  C_18 
REMARK       I    between atoms: N_7  and  C_24 
REMARK    4  A    between atoms: C_13  and  C_15 
REMARK    5  A    between atoms: C_15  and  C_16 
REMARK    6  A    between atoms: C_16  and  C_17 
REMARK    7  A    between atoms: C_17  and  C_24 
REMARK    8  A    between atoms: C_17  and  C_25 
REMARK    9  A    between atoms: C_21  and  C_28 
REMARK   10  A    between atoms: C_25  and  C_30 
ROOT
HETATM    1  O   MK1     0      31.805  26.124  13.155  0.00  0.00    -0.221 OA
HETATM    2  C   MK1     0      31.257  27.382  12.457  0.00  0.00     0.178 C 
ENDROOT
BRANCH   2   3
HETATM    3  C   MK1     0      32.104  28.668  12.410  0.00  0.00     0.135 C 
BRANCH   3   4
HETATM    4  N   MK1     0      31.438  30.037  12.639  0.00  0.00    -0.339 N 
HETATM    5  C   MK1     0      32.083  31.313  12.067  0.00  0.00     0.123 A 
HETATM    6  C   MK1     0      31.417  32.683  12.295  0.00  0.00     0.108 A 
HETATM    7  C   MK1     0      33.395  31.219  11.265  0.00  0.00     0.227 A 
HETATM    8  N   MK1     0      30.105  32.776  13.097  0.00  0.00    -0.339 N 
HETATM    9  C   MK1     0      32.244  33.182  11.715  0.00  0.00    -0.089 A 
HETATM   10  C   MK1     0      29.460  31.500  13.669  0.00  0.00     0.126 A 
HETATM   11  C   MK1     0      30.126  30.131  13.441  0.00  0.00     0.126 A 
HETATM   12  C   MK1     0      33.374  33.864  10.922  0.00  0.00     0.134 A 
HETATM   13  N   MK1     0      34.041  32.495  10.693  0.00  0.00    -0.237 NA
HETATM   14  C   MK1     0      34.504  34.547  10.128  0.00  0.00     0.037 C 
HETATM   15  C   MK1     0      32.708  35.234  11.150  0.00  0.00     0.037 C 
HETATM   16  O   MK1     0      34.061  29.850  11.037  0.00  0.00    -0.168 OA
BRANCH   8  17
HETATM   17  C   MK1     0      29.439  34.146  13.325  0.00  0.00     0.104 C 
BRANCH  17  18
HETATM   18  C   MK1     0      29.811  34.986  14.561  0.00  0.00     0.046 A 
HETATM   19  C   MK1     0      31.135  34.722  15.301  0.00  0.00     0.006 A 
HETATM   20  C   MK1     0      31.508  35.562  16.537  0.00  0.00     0.026 A 
HETATM   21  C   MK1     0      30.556  36.667  17.033  0.00  0.00     0.120 A 
HETATM   22  N   MK1     0      29.231  36.930  16.293  0.00  0.00    -0.295 NA
HETATM   23  C   MK1     0      28.859  36.090  15.057  0.00  0.00     0.122 A 
ENDBRANCH  17  18
ENDBRANCH   8  17
ENDBRANCH   3   4
ENDBRANCH   2   3
BRANCH   2  24
HETATM   24  C   MK1     0      29.863  27.356  11.805  0.00  0.00     0.061 C 
BRANCH  24  25
HETATM   25  C   MK1     0      29.711  26.948  10.327  0.00  0.00     0.002 C 
BRANCH  25  26
HETATM   26  C   MK1     0      30.379  27.790   9.224  0.00  0.00     0.205 C 
HETATM   27  O   MK1     0      31.891  27.654   8.962  0.00  0.00    -0.170 OA
HETATM   28  N   MK1     0      29.536  28.766   8.382  0.00  0.00    -0.219 NA
BRANCH  28  29
HETATM   29  C   MK1     0      30.204  29.607   7.279  0.00  0.00     0.100 A 
HETATM   30  C   MK1     0      30.578  29.117   5.877  0.00  0.00     0.130 A 
HETATM   31  O   MK1     0      30.350  27.697   5.325  0.00  0.00    -0.193 OA
HETATM   32  C   MK1     0      31.217  30.284   5.120  0.00  0.00     0.077 A 
HETATM   33  C   MK1     0      31.240  31.499   6.051  0.00  0.00    -0.040 A 
HETATM   34  C   MK1     0      30.611  31.078   7.392  0.00  0.00    -0.010 A 
HETATM   35  C   MK1     0      31.752  32.939   5.859  0.00  0.00     0.022 A 
HETATM   36  C   MK1     0      30.494  32.097   8.541  0.00  0.00     0.027 A 
HETATM   37  C   MK1     0      31.005  33.537   8.349  0.00  0.00     0.005 A 
HETATM   38  C   MK1     0      31.634  33.958   7.008  0.00  0.00     0.005 A 
ENDBRANCH  28  29
ENDBRANCH  25  26
BRANCH  25  39
HETATM   39  C   MK1     0      28.891  25.699   9.953  0.00  0.00     0.026 C 
BRANCH  39  40
HETATM   40  C   MK1     0      29.603  24.354   9.716  0.00  0.00     0.004 A 
HETATM   41  C   MK1     0      31.127  24.245   9.905  0.00  0.00     0.000 A 
HETATM   42  C   MK1     0      31.838  22.899   9.669  0.00  0.00     0.000 A 
HETATM   43  C   MK1     0      31.025  21.663   9.243  0.00  0.00     0.000 A 
HETATM   44  C   MK1     0      29.499  21.772   9.054  0.00  0.00     0.000 A 
HETATM   45  C   MK1     0      28.789  23.117   9.291  0.00  0.00     0.000 A 
ENDBRANCH  39  40
ENDBRANCH  25  39
ENDBRANCH  24  25
ENDBRANCH   2  24
TORSDOF 10
ENDMDL
MODEL 3
REMARK VINA RESULT:    -6.489      2.711      9.982
REMARK INTER + INTRA:         -12.471
REMARK INTER:                  -9.286
REMARK INTRA:                  -3.185
REMARK UNBOUND:                -2.189
REMARK  10 active torsions:
REMARK  status: ('A' for Active; 'I' for Inactive)
REMARK    1  A    between atoms: N_5  and  C_13 
REMARK    2  A    between atoms: N_6  and  C_21 
REMARK    3  A    between atoms: N_7  and  C_18 
REMARK       I    between atoms: N_7  and  C_24 
REMARK    4  A    between atoms: C_13  and  C_15 
REMARK    5  A    between atoms: C_15  and  C_16 
REMARK    6  A    between atoms: C_16  and  C_17 
REMARK    7  A    between atoms: C_17  and  C_24 
REMARK    8  A    between atoms: C_17  and  C_25 
REMARK    9  A    between atoms: C_21  and  C_28 
REMARK   10  A    between atoms: C_25  and  C_30 
ROOT
HETATM    1  O   MK1     0      34.026  34.541  15.481  0.00  0.00    -0.221 OA
HETATM    2  C   MK1     0      32.955  33.808  14.652  0.00  0.00     0.178 C 
ENDROOT
BRANCH   2   3
HETATM    3  C   MK1     0      33.376  32.878  13.499  0.00  0.00     0.135 C 
BRANCH   3   4
HETATM    4  N   MK1     0      32.415  32.627  12.323  0.00  0.00    -0.339 N 
HETATM    5  C   MK1     0      32.669  33.303  10.963  0.00  0.00     0.123 A 
HETATM    6  C   MK1     0      31.708  33.052   9.786  0.00  0.00     0.108 A 
HETATM    7  C   MK1     0      33.885  34.231  10.779  0.00  0.00     0.227 A 
HETATM    8  N   MK1     0      30.492  32.125   9.970  0.00  0.00    -0.339 N 
HETATM    9  C   MK1     0      32.329  33.730   9.133  0.00  0.00    -0.089 A 
HETATM   10  C   MK1     0      30.238  31.449  11.330  0.00  0.00     0.126 A 
HETATM   11  C   MK1     0      31.199  31.700  12.506  0.00  0.00     0.126 A 
HETATM   12  C   MK1     0      33.177  34.656   8.242  0.00  0.00     0.134 A 
HETATM   13  N   MK1     0      34.139  34.908   9.419  0.00  0.00    -0.237 NA
HETATM   14  C   MK1     0      34.026  35.582   7.351  0.00  0.00     0.037 C 
HETATM   15  C   MK1     0      32.216  34.405   7.065  0.00  0.00     0.037 C 
HETATM   16  O   MK1     0      34.846  34.482  11.956  0.00  0.00    -0.168 OA
BRANCH   8  17
HETATM   17  C   MK1     0      29.531  31.874   8.793  0.00  0.00     0.104 C 
BRANCH  17  18
HETATM   18  C   MK1     0      29.863  30.797   7.743  0.00  0.00     0.046 A 
HETATM   19  C   MK1     0      30.877  31.100   6.624  0.00  0.00     0.006 A 
HETATM   20  C   MK1     0      31.210  30.024   5.574  0.00  0.00     0.026 A 
HETATM   21  C   MK1     0      30.529  28.644   5.643  0.00  0.00     0.120 A 
HETATM   22  N   MK1     0      29.515  28.341   6.763  0.00  0.00    -0.295 NA
HETATM   23  C   MK1     0      29.183  29.418   7.812  0.00  0.00     0.122 A 
ENDBRANCH  17  18
ENDBRANCH   8  17
ENDBRANCH   3   4
ENDBRANCH   2   3
BRANCH   2  24
HETATM   24  C   MK1     0      31.463  34.004  14.976  0.00  0.00     0.061 C 
BRANCH  24  25
HETATM   25  C   MK1     0      30.726  35.262  14.481  0.00  0.00     0.002 C 
BRANCH  25  26
HETATM   26  C   MK1     0      30.258  36.328  15.490  0.00  0.00     0.205 C 
HETATM   27  O   MK1     0      30.566  36.156  16.989  0.00  0.00    -0.170 OA
HETATM   28  N   MK1     0      29.482  37.565  15.000  0.00  0.00    -0.219 NA
BRANCH  28  29
HETATM   29  C   MK1     0      29.015  38.630  16.009  0.00  0.00     0.100 A 
HETATM   30  C   MK1     0      29.602  40.035  16.170  0.00  0.00     0.130 A 
HETATM   31  O   MK1     0      30.763  40.630  15.351  0.00  0.00    -0.193 OA
HETATM   32  C   MK1     0      28.834  40.746  17.287  0.00  0.00     0.077 A 
HETATM   33  C   MK1     0      27.770  39.784  17.820  0.00  0.00    -0.040 A 
HETATM   34  C   MK1     0      27.883  38.469  17.026  0.00  0.00    -0.010 A 
HETATM   35  C   MK1     0      26.708  39.926  18.927  0.00  0.00     0.022 A 
HETATM   36  C   MK1     0      26.933  37.297  17.339  0.00  0.00     0.027 A 
HETATM   37  C   MK1     0      25.872  37.439  18.445  0.00  0.00     0.005 A 
HETATM   38  C   MK1     0      25.759  38.754  19.239  0.00  0.00     0.005 A 
ENDBRANCH  28  29
ENDBRANCH  25  26
BRANCH  25  39
HETATM   39  C   MK1     0      30.456  35.456  12.977  0.00  0.00     0.026 C 
BRANCH  39  40
HETATM   40  C   MK1     0      31.340  36.411  12.153  0.00  0.00     0.004 A 
HETATM   41  C   MK1     0      30.959  36.755  10.702  0.00  0.00     0.000 A 
HETATM   42  C   MK1     0      31.843  37.709   9.878  0.00  0.00     0.000 A 
HETATM   43  C   MK1     0      33.109  38.320  10.505  0.00  0.00     0.000 A 
HETATM   44  C   MK1     0      33.491  37.976  11.958  0.00  0.00     0.000 A 
HETATM   45  C   MK1     0      32.607  37.022  12.781  0.00  0.00     0.000 A 
ENDBRANCH  39  40
ENDBRANCH  25  39
ENDBRANCH  24  25
ENDBRANCH   2  24
TORSDOF 10
ENDMDL
MODEL 4
REMARK VINA RESULT:    -6.452      4.538      8.607
REMARK INTER + INTRA:         -12.413
REMARK INTER:                  -8.765
REMARK INTRA:                  -3.647
REMARK UNBOUND:                -2.189
REMARK  10 active torsions:
REMARK  status: ('A' for Active; 'I' for Inactive)
REMARK    1  A    between atoms: N_5  and  C_13 
REMARK    2  A    between atoms: N_6  and  C_21 
REMARK    3  A    between atoms: N_7  and  C_18 
REMARK       I    between atoms: N_7  and  C_24 
REMARK    4  A    between atoms: C_13  and  C_15 
REMARK    5  A    between atoms: C_15  and  C_16 
REMARK    6  A    between atoms: C_16  and  C_17 
REMARK    7  A    between atoms: C_17  and  C_24 
REMARK    8  A    between atoms: C_17  and  C_25 
REMARK    9  A    between atoms: C_21  and  C_28 
REMARK   10  A    between atoms: C_25  and  C_30 
ROOT
HETATM    1  O   MK1     0      29.866  25.033  13.263  0.00  0.00    -0.221 OA
HETATM    2  C   MK1     0      29.966  26.513  12.849  0.00  0.00     0.178 C 
ENDROOT
BRANCH   2   3
HETATM    3  C   MK1     0      30.387  27.575  13.882  0.00  0.00     0.135 C 
BRANCH   3   4
HETATM    4  N   MK1     0      31.509  28.574  13.545  0.00  0.00    -0.339 N 
HETATM    5  C   MK1     0      31.201  30.081  13.472  0.00  0.00     0.123 A 
HETATM    6  C   MK1     0      32.323  31.081  13.135  0.00  0.00     0.108 A 
HETATM    7  C   MK1     0      29.771  30.589  13.737  0.00  0.00     0.227 A 
HETATM    8  N   MK1     0      33.753  30.573  12.870  0.00  0.00    -0.339 N 
HETATM    9  C   MK1     0      31.588  31.933  13.216  0.00  0.00    -0.089 A 
HETATM   10  C   MK1     0      34.060  29.066  12.943  0.00  0.00     0.126 A 
HETATM   11  C   MK1     0      32.939  28.067  13.280  0.00  0.00     0.126 A 
HETATM   12  C   MK1     0      30.586  33.096  13.327  0.00  0.00     0.134 A 
HETATM   13  N   MK1     0      29.463  32.096  13.664  0.00  0.00    -0.237 NA
HETATM   14  C   MK1     0      29.582  34.260  13.438  0.00  0.00     0.037 C 
HETATM   15  C   MK1     0      31.707  34.096  12.989  0.00  0.00     0.037 C 
HETATM   16  O   MK1     0      28.650  29.589  14.074  0.00  0.00    -0.168 OA
BRANCH   8  17
HETATM   17  C   MK1     0      34.874  31.574  12.533  0.00  0.00     0.104 C 
BRANCH  17  18
HETATM   18  C   MK1     0      34.794  32.415  11.245  0.00  0.00     0.046 A 
HETATM   19  C   MK1     0      35.063  33.930  11.297  0.00  0.00     0.006 A 
HETATM   20  C   MK1     0      34.983  34.772  10.011  0.00  0.00     0.026 A 
HETATM   21  C   MK1     0      34.634  34.098   8.670  0.00  0.00     0.120 A 
HETATM   22  N   MK1     0      34.366  32.582   8.618  0.00  0.00    -0.295 NA
HETATM   23  C   MK1     0      34.446  31.741   9.905  0.00  0.00     0.122 A 
ENDBRANCH  17  18
ENDBRANCH   8  17
ENDBRANCH   3   4
ENDBRANCH   2   3
BRANCH   2  24
HETATM   24  C   MK1     0      29.645  26.932  11.403  0.00  0.00     0.061 C 
BRANCH  24  25
HETATM   25  C   MK1     0      30.733  26.849  10.317  0.00  0.00     0.002 C 
BRANCH  25  26
HETATM   26  C   MK1     0      31.117  28.105   9.513  0.00  0.00     0.205 C 
HETATM   27  O   MK1     0      32.371  28.912   9.900  0.00  0.00    -0.170 OA
HETATM   28  N   MK1     0      30.248  28.555   8.324  0.00  0.00    -0.219 NA
BRANCH  28  29
HETATM   29  C   MK1     0      30.633  29.811   7.521  0.00  0.00     0.100 A 
HETATM   30  C   MK1     0      31.081  29.841   6.057  0.00  0.00     0.130 A 
HETATM   31  O   MK1     0      31.225  28.619   5.131  0.00  0.00    -0.193 OA
HETATM   32  C   MK1     0      31.360  31.296   5.675  0.00  0.00     0.077 A 
HETATM   33  C   MK1     0      31.086  32.172   6.900  0.00  0.00    -0.040 A 
HETATM   34  C   MK1     0      30.634  31.249   8.047  0.00  0.00    -0.010 A 
HETATM   35  C   MK1     0      31.187  33.692   7.129  0.00  0.00     0.022 A 
HETATM   36  C   MK1     0      30.283  31.846   9.423  0.00  0.00     0.027 A 
HETATM   37  C   MK1     0      30.384  33.366   9.652  0.00  0.00     0.005 A 
HETATM   38  C   MK1     0      30.836  34.289   8.504  0.00  0.00     0.005 A 
ENDBRANCH  28  29
ENDBRANCH  25  26
BRANCH  25  39
HETATM   39  C   MK1     0      31.438  25.509  10.033  0.00  0.00     0.026 C 
BRANCH  39  40
HETATM   40  C   MK1     0      30.606  24.235   9.798  0.00  0.00     0.004 A 
HETATM   41  C   MK1     0      29.081  24.335   9.608  0.00  0.00     0.000 A 
HETATM   42  C   MK1     0      28.248  23.061   9.373  0.00  0.00     0.000 A 
HETATM   43  C   MK1     0      28.940  21.686   9.329  0.00  0.00     0.000 A 
HETATM   44  C   MK1     0      30.466  21.586   9.519  0.00  0.00     0.000 A 
HETATM   45  C   MK1     0      31.298  22.860   9.754  0.00  0.00     0.000 A 
ENDBRANCH  39  40
ENDBRANCH  25  39
ENDBRANCH  24  25
ENDBRANCH   2  24
TORSDOF 10
ENDMDL
MODEL 5
REMARK VINA RESULT:    -6.354      1.206      2.371
REMARK INTER + INTRA:         -12.257
REMARK INTER:                 -10.293
REMARK INTRA:                  -1.964
REMARK UNBOUND:                -2.189
REMARK  10 active torsions:
REMARK  status: ('A' for Active; 'I' for Inactive)
REMARK    1  A    between atoms: N_5  and  C_13 
REMARK    2  A    between atoms: N_6  and  C_21 
REMARK    3  A    between atoms: N_7  and  C_18 
REMARK       I    between atoms: N_7  and  C_24 
REMARK    4  A    between atoms: C_13  and  C_15 
REMARK    5  A    between atoms: C_15  and  C_16 
REMARK    6  A    between atoms: C_16  and  C_17 
REMARK    7  A    between atoms: C_17  and  C_24 
REMARK    8  A    between atoms: C_17  and  C_25 
REMARK    9  A    between atoms: C_21  and  C_28 
REMARK   10  A    between atoms: C_25  and  C_30 
ROOT
HETATM    1  O   MK1     0      33.421  35.016  12.250  0.00  0.00    -0.221 OA
HETATM    2  C   MK1     0      32.156  34.715  11.426  0.00  0.00     0.178 C 
ENDROOT
BRANCH   2   3
HETATM    3  C   MK1     0      30.847  35.472  11.720  0.00  0.00     0.135 C 
BRANCH   3   4
HETATM    4  N   MK1     0      30.590  36.045  13.126  0.00  0.00    -0.339 N 
HETATM    5  C   MK1     0      30.573  37.570  13.345  0.00  0.00     0.123 A 
HETATM    6  C   MK1     0      30.316  38.144  14.751  0.00  0.00     0.108 A 
HETATM    7  C   MK1     0      30.814  38.521  12.158  0.00  0.00     0.227 A 
HETATM    8  N   MK1     0      30.075  37.192  15.938  0.00  0.00    -0.339 N 
HETATM    9  C   MK1     0      30.410  39.190  14.342  0.00  0.00    -0.089 A 
HETATM   10  C   MK1     0      30.091  35.668  15.719  0.00  0.00     0.126 A 
HETATM   11  C   MK1     0      30.349  35.095  14.313  0.00  0.00     0.126 A 
HETATM   12  C   MK1     0      30.540  40.618  13.783  0.00  0.00     0.134 A 
HETATM   13  N   MK1     0      30.797  40.046  12.376  0.00  0.00    -0.237 NA
HETATM   14  C   MK1     0      30.669  42.048  13.223  0.00  0.00     0.037 C 
HETATM   15  C   MK1     0      30.282  41.192  15.189  0.00  0.00     0.037 C 
HETATM   16  O   MK1     0      31.071  37.947  10.752  0.00  0.00    -0.168 OA
BRANCH   8  17
HETATM   17  C   MK1     0      29.817  37.766  17.344  0.00  0.00     0.104 C 
BRANCH  17  18
HETATM   18  C   MK1     0      28.387  38.144  17.771  0.00  0.00     0.046 A 
HETATM   19  C   MK1     0      27.364  37.040  18.100  0.00  0.00     0.006 A 
HETATM   20  C   MK1     0      25.934  37.417  18.527  0.00  0.00     0.026 A 
HETATM   21  C   MK1     0      25.525  38.900  18.626  0.00  0.00     0.120 A 
HETATM   22  N   MK1     0      26.548  40.003  18.296  0.00  0.00    -0.295 NA
HETATM   23  C   MK1     0      27.978  39.625  17.869  0.00  0.00     0.122 A 
ENDBRANCH  17  18
ENDBRANCH   8  17
ENDBRANCH   3   4
ENDBRANCH   2   3
BRANCH   2  24
HETATM   24  C   MK1     0      32.198  33.658  10.307  0.00  0.00     0.061 C 
BRANCH  24  25
HETATM   25  C   MK1     0      30.983  32.743  10.066  0.00  0.00     0.002 C 
BRANCH  25  26
HETATM   26  C   MK1     0      30.518  31.774  11.169  0.00  0.00     0.205 C 
HETATM   27  O   MK1     0      29.440  32.215  12.177  0.00  0.00    -0.170 OA
HETATM   28  N   MK1     0      31.131  30.364  11.265  0.00  0.00    -0.219 NA
BRANCH  28  29
HETATM   29  C   MK1     0      30.666  29.396  12.367  0.00  0.00     0.100 A 
HETATM   30  C   MK1     0      30.021  28.025  12.147  0.00  0.00     0.130 A 
HETATM   31  O   MK1     0      29.723  27.374  10.783  0.00  0.00    -0.193 OA
HETATM   32  C   MK1     0      29.723  27.413  13.518  0.00  0.00     0.077 A 
HETATM   33  C   MK1     0      30.183  28.403  14.591  0.00  0.00    -0.040 A 
HETATM   34  C   MK1     0      30.769  29.635  13.876  0.00  0.00    -0.010 A 
HETATM   35  C   MK1     0      30.147  28.351  16.130  0.00  0.00     0.022 A 
HETATM   36  C   MK1     0      31.320  30.814  14.700  0.00  0.00     0.027 A 
HETATM   37  C   MK1     0      31.284  30.761  16.239  0.00  0.00     0.005 A 
HETATM   38  C   MK1     0      30.698  29.530  16.954  0.00  0.00     0.005 A 
ENDBRANCH  28  29
ENDBRANCH  25  26
BRANCH  25  39
HETATM   39  C   MK1     0      30.232  32.796   8.722  0.00  0.00     0.026 C 
BRANCH  39  40
HETATM   40  C   MK1     0      30.255  31.579   7.779  0.00  0.00     0.004 A 
HETATM   41  C   MK1     0      29.335  30.376   8.051  0.00  0.00     0.000 A 
HETATM   42  C   MK1     0      29.358  29.159   7.107  0.00  0.00     0.000 A 
HETATM   43  C   MK1     0      30.302  29.146   5.891  0.00  0.00     0.000 A 
HETATM   44  C   MK1     0      31.224  30.350   5.618  0.00  0.00     0.000 A 
HETATM   45  C   MK1     0      31.200  31.566   6.562  0.00  0.00     0.000 A 
ENDBRANCH  39  40
ENDBRANCH  25  39
ENDBRANCH  24  25
ENDBRANCH   2  24
TORSDOF 10
ENDMDL
MODEL 6
REMARK VINA RESULT:    -6.292      4.695      8.939
REMARK INTER + INTRA:         -12.159
REMARK INTER:                  -7.725
REMARK INTRA:                  -4.434
REMARK UNBOUND:                -2.189
REMARK  10 active torsions:
REMARK  status: ('A' for Active; 'I' for Inactive)
REMARK    1  A    between atoms: N_5  and  C_13 
REMARK    2  A    between atoms: N_6  and  C_21 
REMARK    3  A    between atoms: N_7  and  C_18 
REMARK       I    between atoms: N_7  and  C_24 
REMARK    4  A    between atoms: C_13  and  C_15 
REMARK    5  A    between atoms: C_15  and  C_16 
REMARK    6  A    between atoms: C_16  and  C_17 
REMARK    7  A    between atoms: C_17  and  C_24 
REMARK    8  A    between atoms: C_17  and  C_25 
REMARK    9  A    between atoms: C_21  and  C_28 
REMARK   10  A    between atoms: C_25  and  C_30 
ROOT
HETATM    1  O   MK1     0      29.425  24.768  12.998  0.00  0.00    -0.221 OA
HETATM    2  C   MK1     0      29.646  26.246  12.624  0.00  0.00     0.178 C 
ENDROOT
BRANCH   2   3
HETATM    3  C   MK1     0      30.191  27.233  13.673  0.00  0.00     0.135 C 
BRANCH   3   4
HETATM    4  N   MK1     0      31.351  28.178  13.311  0.00  0.00    -0.339 N 
HETATM    5  C   MK1     0      31.130  29.702  13.305  0.00  0.00     0.123 A 
HETATM    6  C   MK1     0      32.290  30.648  12.943  0.00  0.00     0.108 A 
HETATM    7  C   MK1     0      29.748  30.281  13.662  0.00  0.00     0.227 A 
HETATM    8  N   MK1     0      33.672  30.069  12.586  0.00  0.00    -0.339 N 
HETATM    9  C   MK1     0      31.612  31.536  13.092  0.00  0.00    -0.089 A 
HETATM   10  C   MK1     0      33.893  28.545  12.592  0.00  0.00     0.126 A 
HETATM   11  C   MK1     0      32.733  27.600  12.954  0.00  0.00     0.126 A 
HETATM   12  C   MK1     0      30.687  32.750  13.294  0.00  0.00     0.134 A 
HETATM   13  N   MK1     0      29.526  31.805  13.657  0.00  0.00    -0.237 NA
HETATM   14  C   MK1     0      29.760  33.965  13.497  0.00  0.00     0.037 C 
HETATM   15  C   MK1     0      31.847  33.696  12.932  0.00  0.00     0.037 C 
HETATM   16  O   MK1     0      28.587  29.335  14.025  0.00  0.00    -0.168 OA
BRANCH   8  17
HETATM   17  C   MK1     0      34.832  31.015  12.224  0.00  0.00     0.104 C 
BRANCH  17  18
HETATM   18  C   MK1     0      34.801  31.798  10.898  0.00  0.00     0.046 A 
HETATM   19  C   MK1     0      34.364  31.095   9.599  0.00  0.00     0.006 A 
HETATM   20  C   MK1     0      34.334  31.877   8.273  0.00  0.00     0.026 A 
HETATM   21  C   MK1     0      34.740  33.363   8.245  0.00  0.00     0.120 A 
HETATM   22  N   MK1     0      35.177  34.065   9.545  0.00  0.00    -0.295 NA
HETATM   23  C   MK1     0      35.208  33.282  10.870  0.00  0.00     0.122 A 
ENDBRANCH  17  18
ENDBRANCH   8  17
ENDBRANCH   3   4
ENDBRANCH   2   3
BRANCH   2  24
HETATM   24  C   MK1     0      29.321  26.737  11.202  0.00  0.00     0.061 C 
BRANCH  24  25
HETATM   25  C   MK1     0      30.347  26.549  10.069  0.00  0.00     0.002 C 
BRANCH  25  26
HETATM   26  C   MK1     0      30.852  27.769   9.276  0.00  0.00     0.205 C 
HETATM   27  O   MK1     0      32.324  28.206   9.392  0.00  0.00    -0.170 OA
HETATM   28  N   MK1     0      29.885  28.553   8.369  0.00  0.00    -0.219 NA
BRANCH  28  29
HETATM   29  C   MK1     0      30.390  29.772   7.577  0.00  0.00     0.100 A 
HETATM   30  C   MK1     0      30.896  29.759   6.131  0.00  0.00     0.130 A 
HETATM   31  O   MK1     0      30.988  28.524   5.217  0.00  0.00    -0.193 OA
HETATM   32  C   MK1     0      31.294  31.189   5.754  0.00  0.00     0.077 A 
HETATM   33  C   MK1     0      31.036  32.090   6.965  0.00  0.00    -0.040 A 
HETATM   34  C   MK1     0      30.474  31.210   8.097  0.00  0.00    -0.010 A 
HETATM   35  C   MK1     0      31.237  33.600   7.191  0.00  0.00     0.022 A 
HETATM   36  C   MK1     0      30.113  31.840   9.455  0.00  0.00     0.027 A 
HETATM   37  C   MK1     0      30.314  33.350   9.681  0.00  0.00     0.005 A 
HETATM   38  C   MK1     0      30.876  34.230   8.549  0.00  0.00     0.005 A 
ENDBRANCH  28  29
ENDBRANCH  25  26
BRANCH  25  39
HETATM   39  C   MK1     0      30.869  25.140   9.728  0.00  0.00     0.026 C 
BRANCH  39  40
HETATM   40  C   MK1     0      32.285  24.718  10.163  0.00  0.00     0.004 A 
HETATM   41  C   MK1     0      32.522  24.166  11.581  0.00  0.00     0.000 A 
HETATM   42  C   MK1     0      33.937  23.743  12.016  0.00  0.00     0.000 A 
HETATM   43  C   MK1     0      35.116  23.872  11.034  0.00  0.00     0.000 A 
HETATM   44  C   MK1     0      34.879  24.424   9.615  0.00  0.00     0.000 A 
HETATM   45  C   MK1     0      33.464  24.847   9.180  0.00  0.00     0.000 A 
ENDBRANCH  39  40
ENDBRANCH  25  39
ENDBRANCH  24  25
ENDBRANCH   2  24
TORSDOF 10
ENDMDL
MODEL 7
REMARK VINA RESULT:    -6.272      4.481      7.283
REMARK INTER + INTRA:         -12.127
REMARK INTER:                  -7.927
REMARK INTRA:                  -4.200
REMARK UNBOUND:                -2.189
REMARK  10 active torsions:
REMARK  status: ('A' for Active; 'I' for Inactive)
REMARK    1  A    between atoms: N_5  and  C_13 
REMARK    2  A    between atoms: N_6  and  C_21 
REMARK    3  A    between atoms: N_7  and  C_18 
REMARK       I    between atoms: N_7  and  C_24 
REMARK    4  A    between atoms: C_13  and  C_15 
REMARK    5  A    between atoms: C_15  and  C_16 
REMARK    6  A    between atoms: C_16  and  C_17 
REMARK    7  A    between atoms: C_17  and  C_24 
REMARK    8  A    between atoms: C_17  and  C_25 
REMARK    9  A    between atoms: C_21  and  C_28 
REMARK   10  A    between atoms: C_25  and  C_30 
ROOT
HETATM    1  O   MK1     0      33.304  29.353   5.888  0.00  0.00    -0.221 OA
HETATM    2  C   MK1     0      33.102  30.879   5.853  0.00  0.00     0.178 C 
ENDROOT
BRANCH   2   3
HETATM    3  C   MK1     0      34.315  31.814   5.687  0.00  0.00     0.135 C 
BRANCH   3   4
HETATM    4  N   MK1     0      34.264  33.247   6.246  0.00  0.00    -0.339 N 
HETATM    5  C   MK1     0      34.807  33.543   7.657  0.00  0.00     0.123 A 
HETATM    6  C   MK1     0      34.756  34.977   8.217  0.00  0.00     0.108 A 
HETATM    7  C   MK1     0      35.400  32.405   8.509  0.00  0.00     0.227 A 
HETATM    8  N   MK1     0      34.163  36.115   7.365  0.00  0.00    -0.339 N 
HETATM    9  C   MK1     0      35.236  34.621   9.173  0.00  0.00    -0.089 A 
HETATM   10  C   MK1     0      33.621  35.819   5.955  0.00  0.00     0.126 A 
HETATM   11  C   MK1     0      33.672  34.386   5.395  0.00  0.00     0.126 A 
HETATM   12  C   MK1     0      35.891  34.135  10.478  0.00  0.00     0.134 A 
HETATM   13  N   MK1     0      35.942  32.700   9.920  0.00  0.00    -0.237 NA
HETATM   14  C   MK1     0      36.547  33.648  11.785  0.00  0.00     0.037 C 
HETATM   15  C   MK1     0      35.841  35.568  11.039  0.00  0.00     0.037 C 
HETATM   16  O   MK1     0      35.450  30.971   7.949  0.00  0.00    -0.168 OA
BRANCH   8  17
HETATM   17  C   MK1     0      34.113  37.549   7.925  0.00  0.00     0.104 C 
BRANCH  17  18
HETATM   18  C   MK1     0      32.939  37.985   8.822  0.00  0.00     0.046 A 
HETATM   19  C   MK1     0      32.234  36.953   9.723  0.00  0.00     0.006 A 
HETATM   20  C   MK1     0      31.061  37.387  10.620  0.00  0.00     0.026 A 
HETATM   21  C   MK1     0      30.592  38.855  10.617  0.00  0.00     0.120 A 
HETATM   22  N   MK1     0      31.296  39.886   9.716  0.00  0.00    -0.295 NA
HETATM   23  C   MK1     0      32.470  39.451   8.819  0.00  0.00     0.122 A 
ENDBRANCH  17  18
ENDBRANCH   8  17
ENDBRANCH   3   4
ENDBRANCH   2   3
BRANCH   2  24
HETATM   24  C   MK1     0      31.687  31.472   5.983  0.00  0.00     0.061 C 
BRANCH  24  25
HETATM   25  C   MK1     0      31.096  31.757   7.377  0.00  0.00     0.002 C 
BRANCH  25  26
HETATM   26  C   MK1     0      30.457  30.616   8.190  0.00  0.00     0.205 C 
HETATM   27  O   MK1     0      28.973  30.262   7.985  0.00  0.00    -0.170 OA
HETATM   28  N   MK1     0      31.303  29.829   9.209  0.00  0.00    -0.219 NA
BRANCH  28  29
HETATM   29  C   MK1     0      30.664  28.688  10.022  0.00  0.00     0.100 A 
HETATM   30  C   MK1     0      30.133  27.368   9.456  0.00  0.00     0.130 A 
HETATM   31  O   MK1     0      30.146  26.950   7.974  0.00  0.00    -0.193 OA
HETATM   32  C   MK1     0      29.588  26.537  10.620  0.00  0.00     0.077 A 
HETATM   33  C   MK1     0      29.780  27.339  11.909  0.00  0.00    -0.040 A 
HETATM   34  C   MK1     0      30.448  28.676  11.537  0.00  0.00    -0.010 A 
HETATM   35  C   MK1     0      29.435  27.033  13.378  0.00  0.00     0.022 A 
HETATM   36  C   MK1     0      30.771  29.707  12.636  0.00  0.00     0.027 A 
HETATM   37  C   MK1     0      30.426  29.400  14.105  0.00  0.00     0.005 A 
HETATM   38  C   MK1     0      29.758  28.064  14.476  0.00  0.00     0.005 A 
ENDBRANCH  28  29
ENDBRANCH  25  26
BRANCH  25  39
HETATM   39  C   MK1     0      31.144  33.183   7.957  0.00  0.00     0.026 C 
BRANCH  39  40
HETATM   40  C   MK1     0      31.057  33.397   9.480  0.00  0.00     0.004 A 
HETATM   41  C   MK1     0      32.304  33.190  10.359  0.00  0.00     0.000 A 
HETATM   42  C   MK1     0      32.217  33.405  11.882  0.00  0.00     0.000 A 
HETATM   43  C   MK1     0      30.883  33.826  12.525  0.00  0.00     0.000 A 
HETATM   44  C   MK1     0      29.635  34.034  11.645  0.00  0.00     0.000 A 
HETATM   45  C   MK1     0      29.723  33.819  10.124  0.00  0.00     0.000 A 
ENDBRANCH  39  40
ENDBRANCH  25  39
ENDBRANCH  24  25
ENDBRANCH   2  24
TORSDOF 10
ENDMDL
MODEL 8
REMARK VINA RESULT:    -6.259      2.930      9.711
REMARK INTER + INTRA:         -12.107
REMARK INTER:                  -8.954
REMARK INTRA:                  -3.153
REMARK UNBOUND:                -2.189
REMARK  10 active torsions:
REMARK  status: ('A' for Active; 'I' for Inactive)
REMARK    1  A    between atoms: N_5  and  C_13 
REMARK    2  A    between atoms: N_6  and  C_21 
REMARK    3  A    between atoms: N_7  and  C_18 
REMARK       I    between atoms: N_7  and  C_24 
REMARK    4  A    between atoms: C_13  and  C_15 
REMARK    5  A    between atoms: C_15  and  C_16 
REMARK    6  A    between atoms: C_16  and  C_17 
REMARK    7  A    between atoms: C_17  and  C_24 
REMARK    8  A    between atoms: C_17  and  C_25 
REMARK    9  A    between atoms: C_21  and  C_28 
REMARK   10  A    between atoms: C_25  and  C_30 
ROOT
HETATM    1  O   MK1     0      34.410  35.298  14.732  0.00  0.00    -0.221 OA
HETATM    2  C   MK1     0      33.224  34.870  13.847  0.00  0.00     0.178 C 
ENDROOT
BRANCH   2   3
HETATM    3  C   MK1     0      33.254  35.146  12.333  0.00  0.00     0.135 C 
BRANCH   3   4
HETATM    4  N   MK1     0      33.395  33.978  11.340  0.00  0.00    -0.339 N 
HETATM    5  C   MK1     0      33.487  34.258   9.829  0.00  0.00     0.123 A 
HETATM    6  C   MK1     0      33.629  33.090   8.835  0.00  0.00     0.108 A 
HETATM    7  C   MK1     0      33.438  35.708   9.309  0.00  0.00     0.227 A 
HETATM    8  N   MK1     0      33.679  31.640   9.354  0.00  0.00    -0.339 N 
HETATM    9  C   MK1     0      33.647  33.821   7.977  0.00  0.00    -0.089 A 
HETATM   10  C   MK1     0      33.587  31.360  10.866  0.00  0.00     0.126 A 
HETATM   11  C   MK1     0      33.445  32.529  11.858  0.00  0.00     0.126 A 
HETATM   12  C   MK1     0      33.672  34.819   6.806  0.00  0.00     0.134 A 
HETATM   13  N   MK1     0      33.530  35.989   7.798  0.00  0.00    -0.237 NA
HETATM   14  C   MK1     0      33.696  35.818   5.633  0.00  0.00     0.037 C 
HETATM   15  C   MK1     0      33.813  33.651   5.812  0.00  0.00     0.037 C 
HETATM   16  O   MK1     0      33.296  36.876  10.303  0.00  0.00    -0.168 OA
BRANCH   8  17
HETATM   17  C   MK1     0      33.820  30.472   8.361  0.00  0.00     0.104 C 
BRANCH  17  18
HETATM   18  C   MK1     0      32.566  29.856   7.713  0.00  0.00     0.046 A 
HETATM   19  C   MK1     0      32.005  30.448   6.406  0.00  0.00     0.006 A 
HETATM   20  C   MK1     0      30.752  29.834   5.757  0.00  0.00     0.026 A 
HETATM   21  C   MK1     0      30.058  28.625   6.415  0.00  0.00     0.120 A 
HETATM   22  N   MK1     0      30.620  28.033   7.721  0.00  0.00    -0.295 NA
HETATM   23  C   MK1     0      31.874  28.648   8.370  0.00  0.00     0.122 A 
ENDBRANCH  17  18
ENDBRANCH   8  17
ENDBRANCH   3   4
ENDBRANCH   2   3
BRANCH   2  24
HETATM   24  C   MK1     0      32.008  34.166  14.477  0.00  0.00     0.061 C 
BRANCH  24  25
HETATM   25  C   MK1     0      30.584  34.661  14.164  0.00  0.00     0.002 C 
BRANCH  25  26
HETATM   26  C   MK1     0      30.137  36.062  14.623  0.00  0.00     0.205 C 
HETATM   27  O   MK1     0      30.038  37.211  13.602  0.00  0.00    -0.170 OA
HETATM   28  N   MK1     0      29.789  36.314  16.102  0.00  0.00    -0.219 NA
BRANCH  28  29
HETATM   29  C   MK1     0      29.342  37.714  16.559  0.00  0.00     0.100 A 
HETATM   30  C   MK1     0      30.116  39.018  16.350  0.00  0.00     0.130 A 
HETATM   31  O   MK1     0      31.477  39.158  15.644  0.00  0.00    -0.193 OA
HETATM   32  C   MK1     0      29.301  40.159  16.964  0.00  0.00     0.077 A 
HETATM   33  C   MK1     0      28.020  39.564  17.556  0.00  0.00    -0.040 A 
HETATM   34  C   MK1     0      28.046  38.045  17.304  0.00  0.00    -0.010 A 
HETATM   35  C   MK1     0      26.828  40.203  18.293  0.00  0.00     0.022 A 
HETATM   36  C   MK1     0      26.879  37.165  17.790  0.00  0.00     0.027 A 
HETATM   37  C   MK1     0      25.687  37.803  18.527  0.00  0.00     0.005 A 
HETATM   38  C   MK1     0      25.662  39.322  18.779  0.00  0.00     0.005 A 
ENDBRANCH  28  29
ENDBRANCH  25  26
BRANCH  25  39
HETATM   39  C   MK1     0      29.606  33.756  13.391  0.00  0.00     0.026 C 
BRANCH  39  40
HETATM   40  C   MK1     0      29.771  33.564  11.872  0.00  0.00     0.004 A 
HETATM   41  C   MK1     0      29.918  32.148  11.286  0.00  0.00     0.000 A 
HETATM   42  C   MK1     0      30.083  31.956   9.767  0.00  0.00     0.000 A 
HETATM   43  C   MK1     0      30.101  33.181   8.834  0.00  0.00     0.000 A 
HETATM   44  C   MK1     0      29.954  34.598   9.420  0.00  0.00     0.000 A 
HETATM   45  C   MK1     0      29.789  34.789  10.939  0.00  0.00     0.000 A 
ENDBRANCH  39  40
ENDBRANCH  25  39
ENDBRANCH  24  25
ENDBRANCH   2  24
TORSDOF 10
ENDMDL
MODEL 9
REMARK VINA RESULT:    -6.173      2.200     10.346
REMARK INTER + INTRA:         -11.971
REMARK INTER:                  -9.110
REMARK INTRA:                  -2.861
REMARK UNBOUND:                -2.189
REMARK  10 active torsions:
REMARK  status: ('A' for Active; 'I' for Inactive)
REMARK    1  A    between atoms: N_5  and  C_13 
REMARK    2  A    between atoms: N_6  and  C_21 
REMARK    3  A    between atoms: N_7  and  C_18 
REMARK       I    between atoms: N_7  and  C_24 
REMARK    4  A    between atoms: C_13  and  C_15 
REMARK    5  A    between atoms: C_15  and  C_16 
REMARK    6  A    between atoms: C_16  and  C_17 
REMARK    7  A    between atoms: C_17  and  C_24 
REMARK    8  A    between atoms: C_17  and  C_25 
REMARK    9  A    between atoms: C_21  and  C_28 
REMARK   10  A    between atoms: C_25  and  C_30 
ROOT
HETATM    1  O   MK1     0      33.941  34.419  15.147  0.00  0.00    -0.221 OA
HETATM    2  C   MK1     0      32.714  33.951  14.343  0.00  0.00     0.178 C 
ENDROOT
BRANCH   2   3
HETATM    3  C   MK1     0      32.279  32.474  14.391  0.00  0.00     0.135 C 
BRANCH   3   4
HETATM    4  N   MK1     0      32.494  31.569  13.164  0.00  0.00    -0.339 N 
HETATM    5  C   MK1     0      31.723  30.241  13.042  0.00  0.00     0.123 A 
HETATM    6  C   MK1     0      31.937  29.336  11.814  0.00  0.00     0.108 A 
HETATM    7  C   MK1     0      30.738  29.818  14.148  0.00  0.00     0.227 A 
HETATM    8  N   MK1     0      32.922  29.759  10.708  0.00  0.00    -0.339 N 
HETATM    9  C   MK1     0      31.195  28.596  12.231  0.00  0.00    -0.089 A 
HETATM   10  C   MK1     0      33.692  31.087  10.830  0.00  0.00     0.126 A 
HETATM   11  C   MK1     0      33.478  31.992  12.057  0.00  0.00     0.126 A 
HETATM   12  C   MK1     0      30.182  27.586  12.799  0.00  0.00     0.134 A 
HETATM   13  N   MK1     0      29.967  28.490  14.027  0.00  0.00    -0.237 NA
HETATM   14  C   MK1     0      29.168  26.574  13.368  0.00  0.00     0.037 C 
HETATM   15  C   MK1     0      30.396  26.680  11.571  0.00  0.00     0.037 C 
HETATM   16  O   MK1     0      30.524  30.724  15.375  0.00  0.00    -0.168 OA
BRANCH   8  17
HETATM   17  C   MK1     0      33.136  28.853   9.481  0.00  0.00     0.104 C 
BRANCH  17  18
HETATM   18  C   MK1     0      32.165  28.932   8.288  0.00  0.00     0.046 A 
HETATM   19  C   MK1     0      32.401  29.964   7.170  0.00  0.00     0.006 A 
HETATM   20  C   MK1     0      31.432  30.043   5.977  0.00  0.00     0.026 A 
HETATM   21  C   MK1     0      30.224  29.089   5.901  0.00  0.00     0.120 A 
HETATM   22  N   MK1     0      29.988  28.057   7.020  0.00  0.00    -0.295 NA
HETATM   23  C   MK1     0      30.959  27.978   8.213  0.00  0.00     0.122 A 
ENDBRANCH  17  18
ENDBRANCH   8  17
ENDBRANCH   3   4
ENDBRANCH   2   3
BRANCH   2  24
HETATM   24  C   MK1     0      31.921  34.959  13.492  0.00  0.00     0.061 C 
BRANCH  24  25
HETATM   25  C   MK1     0      30.386  35.023  13.603  0.00  0.00     0.002 C 
BRANCH  25  26
HETATM   26  C   MK1     0      29.723  36.085  14.500  0.00  0.00     0.205 C 
HETATM   27  O   MK1     0      28.222  35.986  14.829  0.00  0.00    -0.170 OA
HETATM   28  N   MK1     0      30.560  37.246  15.068  0.00  0.00    -0.219 NA
BRANCH  28  29
HETATM   29  C   MK1     0      29.897  38.308  15.964  0.00  0.00     0.100 A 
HETATM   30  C   MK1     0      29.792  39.805  15.658  0.00  0.00     0.130 A 
HETATM   31  O   MK1     0      30.332  40.510  14.400  0.00  0.00    -0.193 OA
HETATM   32  C   MK1     0      29.057  40.477  16.820  0.00  0.00     0.077 A 
HETATM   33  C   MK1     0      28.705  39.399  17.848  0.00  0.00    -0.040 A 
HETATM   34  C   MK1     0      29.227  38.052  17.316  0.00  0.00    -0.010 A 
HETATM   35  C   MK1     0      27.977  39.462  19.204  0.00  0.00     0.022 A 
HETATM   36  C   MK1     0      29.020  36.767  18.140  0.00  0.00     0.027 A 
HETATM   37  C   MK1     0      28.292  36.829  19.495  0.00  0.00     0.005 A 
HETATM   38  C   MK1     0      27.770  38.177  20.027  0.00  0.00     0.005 A 
ENDBRANCH  28  29
ENDBRANCH  25  26
BRANCH  25  39
HETATM   39  C   MK1     0      29.514  34.025  12.819  0.00  0.00     0.026 C 
BRANCH  39  40
HETATM   40  C   MK1     0      29.842  33.705  11.349  0.00  0.00     0.004 A 
HETATM   41  C   MK1     0      30.168  34.845  10.367  0.00  0.00     0.000 A 
HETATM   42  C   MK1     0      30.496  34.526   8.897  0.00  0.00     0.000 A 
HETATM   43  C   MK1     0      30.497  33.065   8.408  0.00  0.00     0.000 A 
HETATM   44  C   MK1     0      30.170  31.924   9.391  0.00  0.00     0.000 A 
HETATM   45  C   MK1     0      29.843  32.244  10.860  0.00  0.00     0.000 A 
ENDBRANCH  39  40
ENDBRANCH  25  39
ENDBRANCH  24  25
ENDBRANCH   2  24
TORSDOF 10
ENDMDL
