MODEL 1
REMARK VINA RESULT:      -9.2      0.000      0.000
REMARK  7 active torsions:
REMARK  status: ('A' for Active; 'I' for Inactive)
REMARK    1  A    between atoms: C2_2  and  C3_3 
REMARK    2  A    between atoms: C3_3  and  C4_4 
REMARK    3  A    between atoms: C7_10  and  C9_14 
REMARK    4  A    between atoms: C10_15  and  O4_30 
REMARK    5  A    between atoms: C13_18  and  S1_20 
REMARK    6  A    between atoms: S1_20  and  N5_23 
REMARK    7  A    between atoms: O4_30  and  C20_31 
ROOT
HETATM    1  C9  VIA     1     -33.253 -14.957 -18.684  1.00  0.00     0.045 A 
HETATM    2  C10 VIA     1     -32.735 -13.906 -19.478  1.00  0.00     0.082 A 
HETATM    3  C11 VIA     1     -33.441 -13.504 -20.622  1.00  0.00     0.039 A 
HETATM    4  C12 VIA     1     -34.639 -14.124 -20.986  1.00  0.00     0.028 A 
HETATM    5  C13 VIA     1     -35.141 -15.163 -20.206  1.00  0.00     0.080 A 
HETATM    6  C14 VIA     1     -34.469 -15.563 -19.050  1.00  0.00     0.043 A 
ENDROOT
BRANCH   1   7
HETATM    7  C7  VIA     1     -32.578 -15.507 -17.452  1.00  0.00     0.144 A 
HETATM    8  N3  VIA     1     -32.586 -14.805 -16.351  1.00  0.00    -0.226 NA
HETATM    9  C6  VIA     1     -31.936 -15.415 -15.278  1.00  0.00     0.119 A 
HETATM   10  C4  VIA     1     -31.752 -14.962 -13.962  1.00  0.00     0.086 A 
HETATM   11  C5  VIA     1     -31.344 -16.639 -15.354  1.00  0.00     0.151 A 
HETATM   12  N1  VIA     1     -31.068 -15.871 -13.241  1.00  0.00    -0.174 NA
HETATM   13  N2  VIA     1     -30.836 -16.881 -14.118  1.00  0.00    -0.266 N 
HETATM   14  C22 VIA     1     -30.113 -18.054 -13.690  1.00  0.00     0.180 C 
HETATM   15  C8  VIA     1     -31.334 -17.411 -16.542  1.00  0.00     0.278 A 
HETATM   16  N4  VIA     1     -31.976 -16.755 -17.568  1.00  0.00    -0.305 N 
HETATM   17  O1  VIA     1     -30.833 -18.521 -16.673  1.00  0.00    -0.265 OA
HETATM   18  H8  VIA     1     -32.028 -17.256 -18.444  1.00  0.00     0.170 HD
BRANCH  10  19
HETATM   19  C3  VIA     1     -32.199 -13.679 -13.352  1.00  0.00     0.063 C 
BRANCH  19  20
HETATM   20  C2  VIA     1     -33.649 -13.703 -12.864  1.00  0.00     0.002 C 
HETATM   21  C1  VIA     1     -34.141 -12.345 -12.384  1.00  0.00     0.005 C 
ENDBRANCH  19  20
ENDBRANCH  10  19
ENDBRANCH   1   7
BRANCH   2  22
HETATM   22  O4  VIA     1     -31.549 -13.342 -19.083  1.00  0.00    -0.351 OA
BRANCH  22  23
HETATM   23  C20 VIA     1     -31.456 -11.930 -18.880  1.00  0.00     0.171 C 
HETATM   24  C21 VIA     1     -32.223 -11.512 -17.639  1.00  0.00     0.034 C 
ENDBRANCH  22  23
ENDBRANCH   2  22
BRANCH   5  25
HETATM   25  S1  VIA     1     -36.684 -15.938 -20.640  1.00  0.00     0.261 S 
HETATM   26  O2  VIA     1     -37.339 -15.084 -21.608  1.00  0.00    -0.200 OA
HETATM   27  O3  VIA     1     -36.395 -17.324 -20.945  1.00  0.00    -0.200 OA
BRANCH  25  28
HETATM   28  N5  VIA     1     -37.573 -15.895 -19.200  1.00  0.00    -0.303 N 
HETATM   29  C15 VIA     1     -38.693 -14.918 -19.126  1.00  0.00     0.165 C 
HETATM   30  C16 VIA     1     -39.159 -14.756 -17.664  1.00  0.00     0.292 C 
HETATM   31  N6  VIA     1     -39.559 -16.046 -17.061  1.00  0.00     0.087 N 
HETATM   32  C17 VIA     1     -38.427 -16.995 -17.140  1.00  0.00     0.292 C 
HETATM   33  C19 VIA     1     -39.970 -15.856 -15.670  1.00  0.00     0.310 C 
HETATM   34  C18 VIA     1     -37.946 -17.204 -18.591  1.00  0.00     0.165 C 
ENDBRANCH  25  28
ENDBRANCH   5  25
TORSDOF 7
ENDMDL
