MODEL 1
REMARK VINA RESULT:      -9.0      0.000      0.000
REMARK  7 active torsions:
REMARK  status: ('A' for Active; 'I' for Inactive)
REMARK    1  A    between atoms: C2_2  and  C3_3 
REMARK    2  A    between atoms: C3_3  and  C4_4 
REMARK    3  A    between atoms: C7_10  and  C9_14 
REMARK    4  A    between atoms: C10_15  and  O4_30 
REMARK    5  A    between atoms: C13_18  and  S1_20 
REMARK    6  A    between atoms: S1_20  and  N5_23 
REMARK    7  A    between atoms: O4_30  and  C20_31 
ROOT
HETATM    1  C9  VIA     1     -33.145 -14.933 -18.756  1.00  0.00     0.045 A 
HETATM    2  C10 VIA     1     -32.650 -13.899 -19.586  1.00  0.00     0.082 A 
HETATM    3  C11 VIA     1     -33.396 -13.510 -20.710  1.00  0.00     0.039 A 
HETATM    4  C12 VIA     1     -34.611 -14.127 -21.018  1.00  0.00     0.028 A 
HETATM    5  C13 VIA     1     -35.090 -15.149 -20.203  1.00  0.00     0.080 A 
HETATM    6  C14 VIA     1     -34.378 -15.536 -19.067  1.00  0.00     0.043 A 
ENDROOT
BRANCH   1   7
HETATM    7  C7  VIA     1     -32.429 -15.468 -17.542  1.00  0.00     0.144 A 
HETATM    8  N3  VIA     1     -32.206 -14.674 -16.528  1.00  0.00    -0.226 NA
HETATM    9  C6  VIA     1     -31.541 -15.280 -15.462  1.00  0.00     0.119 A 
HETATM   10  C4  VIA     1     -31.145 -14.742 -14.227  1.00  0.00     0.086 A 
HETATM   11  C5  VIA     1     -31.155 -16.585 -15.460  1.00  0.00     0.151 A 
HETATM   12  N1  VIA     1     -30.531 -15.679 -13.479  1.00  0.00    -0.174 NA
HETATM   13  N2  VIA     1     -30.554 -16.790 -14.258  1.00  0.00    -0.266 N 
HETATM   14  C22 VIA     1     -29.974 -18.020 -13.775  1.00  0.00     0.180 C 
HETATM   15  C8  VIA     1     -31.394 -17.455 -16.551  1.00  0.00     0.278 A 
HETATM   16  N4  VIA     1     -32.039 -16.802 -17.577  1.00  0.00    -0.305 N 
HETATM   17  O1  VIA     1     -31.085 -18.640 -16.607  1.00  0.00    -0.265 OA
HETATM   18  H8  VIA     1     -32.264 -17.368 -18.384  1.00  0.00     0.170 HD
BRANCH  10  19
HETATM   19  C3  VIA     1     -31.321 -13.352 -13.721  1.00  0.00     0.063 C 
BRANCH  19  20
HETATM   20  C2  VIA     1     -32.774 -12.870 -13.743  1.00  0.00     0.002 C 
HETATM   21  C1  VIA     1     -33.685 -13.679 -12.831  1.00  0.00     0.005 C 
ENDBRANCH  19  20
ENDBRANCH  10  19
ENDBRANCH   1   7
BRANCH   2  22
HETATM   22  O4  VIA     1     -31.447 -13.337 -19.245  1.00  0.00    -0.351 OA
BRANCH  22  23
HETATM   23  C20 VIA     1     -31.338 -11.924 -19.061  1.00  0.00     0.171 C 
HETATM   24  C21 VIA     1     -31.977 -11.499 -17.752  1.00  0.00     0.034 C 
ENDBRANCH  22  23
ENDBRANCH   2  22
BRANCH   5  25
HETATM   25  S1  VIA     1     -36.654 -15.919 -20.566  1.00  0.00     0.261 S 
HETATM   26  O2  VIA     1     -37.351 -15.062 -21.501  1.00  0.00    -0.200 OA
HETATM   27  O3  VIA     1     -36.383 -17.306 -20.888  1.00  0.00    -0.200 OA
BRANCH  25  28
HETATM   28  N5  VIA     1     -37.474 -15.879 -19.087  1.00  0.00    -0.303 N 
HETATM   29  C15 VIA     1     -38.594 -14.906 -18.962  1.00  0.00     0.165 C 
HETATM   30  C16 VIA     1     -38.992 -14.743 -17.480  1.00  0.00     0.292 C 
HETATM   31  N6  VIA     1     -39.358 -16.034 -16.857  1.00  0.00     0.087 N 
HETATM   32  C17 VIA     1     -38.226 -16.979 -16.988  1.00  0.00     0.292 C 
HETATM   33  C19 VIA     1     -39.704 -15.843 -15.449  1.00  0.00     0.310 C 
HETATM   34  C18 VIA     1     -37.813 -17.188 -18.459  1.00  0.00     0.165 C 
ENDBRANCH  25  28
ENDBRANCH   5  25
TORSDOF 7
ENDMDL
