MODEL 1
REMARK VINA RESULT:      -9.2      0.000      0.000
REMARK  7 active torsions:
REMARK  status: ('A' for Active; 'I' for Inactive)
REMARK    1  A    between atoms: C2_2  and  C3_3 
REMARK    2  A    between atoms: C3_3  and  C4_4 
REMARK    3  A    between atoms: C7_10  and  C9_14 
REMARK    4  A    between atoms: C10_15  and  O4_30 
REMARK    5  A    between atoms: C13_18  and  S1_20 
REMARK    6  A    between atoms: S1_20  and  N5_23 
REMARK    7  A    between atoms: O4_30  and  C20_31 
ROOT
HETATM    1  C9  VIA     1     -33.243 -14.977 -18.664  1.00  0.00     0.045 A 
HETATM    2  C10 VIA     1     -32.731 -13.917 -19.449  1.00  0.00     0.082 A 
HETATM    3  C11 VIA     1     -33.439 -13.508 -20.589  1.00  0.00     0.039 A 
HETATM    4  C12 VIA     1     -34.634 -14.130 -20.958  1.00  0.00     0.028 A 
HETATM    5  C13 VIA     1     -35.131 -15.178 -20.188  1.00  0.00     0.080 A 
HETATM    6  C14 VIA     1     -34.457 -15.586 -19.035  1.00  0.00     0.043 A 
ENDROOT
BRANCH   1   7
HETATM    7  C7  VIA     1     -32.566 -15.535 -17.438  1.00  0.00     0.144 A 
HETATM    8  N3  VIA     1     -32.586 -14.848 -16.327  1.00  0.00    -0.226 NA
HETATM    9  C6  VIA     1     -31.931 -15.465 -15.261  1.00  0.00     0.119 A 
HETATM   10  C4  VIA     1     -31.758 -15.027 -13.938  1.00  0.00     0.086 A 
HETATM   11  C5  VIA     1     -31.324 -16.680 -15.351  1.00  0.00     0.151 A 
HETATM   12  N1  VIA     1     -31.064 -15.938 -13.227  1.00  0.00    -0.174 NA
HETATM   13  N2  VIA     1     -30.816 -16.932 -14.116  1.00  0.00    -0.266 N 
HETATM   14  C22 VIA     1     -30.080 -18.101 -13.702  1.00  0.00     0.180 C 
HETATM   15  C8  VIA     1     -31.300 -17.435 -16.549  1.00  0.00     0.278 A 
HETATM   16  N4  VIA     1     -31.947 -16.774 -17.568  1.00  0.00    -0.305 N 
HETATM   17  O1  VIA     1     -30.784 -18.537 -16.694  1.00  0.00    -0.265 OA
HETATM   18  H8  VIA     1     -31.989 -17.264 -18.452  1.00  0.00     0.170 HD
BRANCH  10  19
HETATM   19  C3  VIA     1     -32.223 -13.759 -13.312  1.00  0.00     0.063 C 
BRANCH  19  20
HETATM   20  C2  VIA     1     -33.708 -13.766 -12.940  1.00  0.00     0.002 C 
HETATM   21  C1  VIA     1     -34.150 -12.499 -12.221  1.00  0.00     0.005 C 
ENDBRANCH  19  20
ENDBRANCH  10  19
ENDBRANCH   1   7
BRANCH   2  22
HETATM   22  O4  VIA     1     -31.548 -13.351 -19.049  1.00  0.00    -0.351 OA
BRANCH  22  23
HETATM   23  C20 VIA     1     -31.460 -11.940 -18.835  1.00  0.00     0.171 C 
HETATM   24  C21 VIA     1     -32.226 -11.536 -17.588  1.00  0.00     0.034 C 
ENDBRANCH  22  23
ENDBRANCH   2  22
BRANCH   5  25
HETATM   25  S1  VIA     1     -36.671 -15.956 -20.627  1.00  0.00     0.261 S 
HETATM   26  O2  VIA     1     -37.319 -15.109 -21.606  1.00  0.00    -0.200 OA
HETATM   27  O3  VIA     1     -36.379 -17.344 -20.923  1.00  0.00    -0.200 OA
BRANCH  25  28
HETATM   28  N5  VIA     1     -37.570 -15.905 -19.195  1.00  0.00    -0.303 N 
HETATM   29  C15 VIA     1     -38.684 -14.920 -19.131  1.00  0.00     0.165 C 
HETATM   30  C16 VIA     1     -39.160 -14.752 -17.672  1.00  0.00     0.292 C 
HETATM   31  N6  VIA     1     -39.573 -16.038 -17.070  1.00  0.00     0.087 N 
HETATM   32  C17 VIA     1     -38.447 -16.996 -17.140  1.00  0.00     0.292 C 
HETATM   33  C19 VIA     1     -39.993 -15.843 -15.683  1.00  0.00     0.310 C 
HETATM   34  C18 VIA     1     -37.957 -17.210 -18.586  1.00  0.00     0.165 C 
ENDBRANCH  25  28
ENDBRANCH   5  25
TORSDOF 7
ENDMDL
