MODEL 1
REMARK VINA RESULT:      -9.0      0.000      0.000
REMARK  7 active torsions:
REMARK  status: ('A' for Active; 'I' for Inactive)
REMARK    1  A    between atoms: C2_2  and  C3_3 
REMARK    2  A    between atoms: C3_3  and  C4_4 
REMARK    3  A    between atoms: C7_10  and  C9_14 
REMARK    4  A    between atoms: C10_15  and  O4_30 
REMARK    5  A    between atoms: C13_18  and  S1_20 
REMARK    6  A    between atoms: S1_20  and  N5_23 
REMARK    7  A    between atoms: O4_30  and  C20_31 
ROOT
HETATM    1  C9  VIA     1     -31.028 -17.280 -15.645  1.00  0.00     0.045 A 
HETATM    2  C10 VIA     1     -30.142 -16.610 -14.767  1.00  0.00     0.082 A 
HETATM    3  C11 VIA     1     -29.507 -17.338 -13.750  1.00  0.00     0.039 A 
HETATM    4  C12 VIA     1     -29.738 -18.707 -13.592  1.00  0.00     0.028 A 
HETATM    5  C13 VIA     1     -30.616 -19.361 -14.452  1.00  0.00     0.080 A 
HETATM    6  C14 VIA     1     -31.240 -18.662 -15.487  1.00  0.00     0.043 A 
ENDROOT
BRANCH   1   7
HETATM    7  C7  VIA     1     -31.797 -16.610 -16.755  1.00  0.00     0.144 A 
HETATM    8  N3  VIA     1     -33.054 -16.915 -16.937  1.00  0.00    -0.226 NA
HETATM    9  C6  VIA     1     -33.663 -16.230 -17.989  1.00  0.00     0.119 A 
HETATM   10  C4  VIA     1     -34.982 -16.301 -18.464  1.00  0.00     0.086 A 
HETATM   11  C5  VIA     1     -33.018 -15.315 -18.765  1.00  0.00     0.151 A 
HETATM   12  N1  VIA     1     -35.156 -15.460 -19.503  1.00  0.00    -0.174 NA
HETATM   13  N2  VIA     1     -33.941 -14.875 -19.659  1.00  0.00    -0.266 N 
HETATM   14  C22 VIA     1     -33.744 -13.894 -20.699  1.00  0.00     0.180 C 
HETATM   15  C8  VIA     1     -31.658 -14.974 -18.573  1.00  0.00     0.278 A 
HETATM   16  N4  VIA     1     -31.106 -15.688 -17.534  1.00  0.00    -0.305 N 
HETATM   17  O1  VIA     1     -31.024 -14.153 -19.225  1.00  0.00    -0.265 OA
HETATM   18  H8  VIA     1     -30.139 -15.481 -17.323  1.00  0.00     0.170 HD
BRANCH  10  19
HETATM   19  C3  VIA     1     -36.101 -17.151 -17.972  1.00  0.00     0.063 C 
BRANCH  19  20
HETATM   20  C2  VIA     1     -36.071 -18.582 -18.516  1.00  0.00     0.002 C 
HETATM   21  C1  VIA     1     -35.713 -19.616 -17.458  1.00  0.00     0.005 C 
ENDBRANCH  19  20
ENDBRANCH  10  19
ENDBRANCH   1   7
BRANCH   2  22
HETATM   22  O4  VIA     1     -29.962 -15.264 -14.959  1.00  0.00    -0.351 OA
BRANCH  22  23
HETATM   23  C20 VIA     1     -30.265 -14.340 -13.912  1.00  0.00     0.171 C 
HETATM   24  C21 VIA     1     -31.760 -14.092 -13.827  1.00  0.00     0.034 C 
ENDBRANCH  22  23
ENDBRANCH   2  22
BRANCH   5  25
HETATM   25  S1  VIA     1     -30.892 -21.112 -14.282  1.00  0.00     0.261 S 
HETATM   26  O2  VIA     1     -32.119 -21.286 -13.536  1.00  0.00    -0.200 OA
HETATM   27  O3  VIA     1     -30.731 -21.699 -15.597  1.00  0.00    -0.200 OA
BRANCH  25  28
HETATM   28  N5  VIA     1     -29.601 -21.630 -13.319  1.00  0.00    -0.303 N 
HETATM   29  C15 VIA     1     -29.788 -22.898 -12.562  1.00  0.00     0.165 C 
HETATM   30  C16 VIA     1     -28.693 -23.040 -11.485  1.00  0.00     0.292 C 
HETATM   31  N6  VIA     1     -27.333 -22.980 -12.062  1.00  0.00     0.087 N 
HETATM   32  C17 VIA     1     -27.170 -21.708 -12.802  1.00  0.00     0.292 C 
HETATM   33  C19 VIA     1     -26.324 -23.092 -11.010  1.00  0.00     0.310 C 
HETATM   34  C18 VIA     1     -28.233 -21.540 -13.906  1.00  0.00     0.165 C 
ENDBRANCH  25  28
ENDBRANCH   5  25
TORSDOF 7
ENDMDL
