MODEL 1
REMARK VINA RESULT:      -9.2      0.000      0.000
REMARK  7 active torsions:
REMARK  status: ('A' for Active; 'I' for Inactive)
REMARK    1  A    between atoms: C2_2  and  C3_3 
REMARK    2  A    between atoms: C3_3  and  C4_4 
REMARK    3  A    between atoms: C7_10  and  C9_14 
REMARK    4  A    between atoms: C10_15  and  O4_30 
REMARK    5  A    between atoms: C13_18  and  S1_20 
REMARK    6  A    between atoms: S1_20  and  N5_23 
REMARK    7  A    between atoms: O4_30  and  C20_31 
ROOT
HETATM    1  C9  VIA     1     -33.245 -14.969 -18.669  1.00  0.00     0.045 A 
HETATM    2  C10 VIA     1     -32.723 -13.919 -19.462  1.00  0.00     0.082 A 
HETATM    3  C11 VIA     1     -33.425 -13.513 -20.607  1.00  0.00     0.039 A 
HETATM    4  C12 VIA     1     -34.624 -14.130 -20.973  1.00  0.00     0.028 A 
HETATM    5  C13 VIA     1     -35.130 -15.168 -20.195  1.00  0.00     0.080 A 
HETATM    6  C14 VIA     1     -34.462 -15.572 -19.038  1.00  0.00     0.043 A 
ENDROOT
BRANCH   1   7
HETATM    7  C7  VIA     1     -32.574 -15.521 -17.437  1.00  0.00     0.144 A 
HETATM    8  N3  VIA     1     -32.564 -14.811 -16.341  1.00  0.00    -0.226 NA
HETATM    9  C6  VIA     1     -31.919 -15.426 -15.266  1.00  0.00     0.119 A 
HETATM   10  C4  VIA     1     -31.722 -14.966 -13.955  1.00  0.00     0.086 A 
HETATM   11  C5  VIA     1     -31.350 -16.660 -15.336  1.00  0.00     0.151 A 
HETATM   12  N1  VIA     1     -31.050 -15.882 -13.230  1.00  0.00    -0.174 NA
HETATM   13  N2  VIA     1     -30.840 -16.902 -14.100  1.00  0.00    -0.266 N 
HETATM   14  C22 VIA     1     -30.135 -18.084 -13.668  1.00  0.00     0.180 C 
HETATM   15  C8  VIA     1     -31.358 -17.440 -16.518  1.00  0.00     0.278 A 
HETATM   16  N4  VIA     1     -31.994 -16.781 -17.546  1.00  0.00    -0.305 N 
HETATM   17  O1  VIA     1     -30.877 -18.560 -16.644  1.00  0.00    -0.265 OA
HETATM   18  H8  VIA     1     -32.059 -17.287 -18.419  1.00  0.00     0.170 HD
BRANCH  10  19
HETATM   19  C3  VIA     1     -32.143 -13.671 -13.351  1.00  0.00     0.063 C 
BRANCH  19  20
HETATM   20  C2  VIA     1     -31.369 -12.464 -13.886  1.00  0.00     0.002 C 
HETATM   21  C1  VIA     1     -31.961 -11.132 -13.447  1.00  0.00     0.005 C 
ENDBRANCH  19  20
ENDBRANCH  10  19
ENDBRANCH   1   7
BRANCH   2  22
HETATM   22  O4  VIA     1     -31.536 -13.358 -19.064  1.00  0.00    -0.351 OA
BRANCH  22  23
HETATM   23  C20 VIA     1     -31.446 -11.950 -18.834  1.00  0.00     0.171 C 
HETATM   24  C21 VIA     1     -32.263 -11.548 -17.619  1.00  0.00     0.034 C 
ENDBRANCH  22  23
ENDBRANCH   2  22
BRANCH   5  25
HETATM   25  S1  VIA     1     -36.675 -15.939 -20.632  1.00  0.00     0.261 S 
HETATM   26  O2  VIA     1     -37.325 -15.083 -21.602  1.00  0.00    -0.200 OA
HETATM   27  O3  VIA     1     -36.389 -17.326 -20.938  1.00  0.00    -0.200 OA
BRANCH  25  28
HETATM   28  N5  VIA     1     -37.566 -15.894 -19.195  1.00  0.00    -0.303 N 
HETATM   29  C15 VIA     1     -38.682 -14.911 -19.121  1.00  0.00     0.165 C 
HETATM   30  C16 VIA     1     -39.151 -14.749 -17.660  1.00  0.00     0.292 C 
HETATM   31  N6  VIA     1     -39.559 -16.038 -17.060  1.00  0.00     0.087 N 
HETATM   32  C17 VIA     1     -38.431 -16.993 -17.139  1.00  0.00     0.292 C 
HETATM   33  C19 VIA     1     -39.972 -15.848 -15.670  1.00  0.00     0.310 C 
HETATM   34  C18 VIA     1     -37.948 -17.202 -18.588  1.00  0.00     0.165 C 
ENDBRANCH  25  28
ENDBRANCH   5  25
TORSDOF 7
ENDMDL
