MODEL 1
REMARK VINA RESULT:      -7.2      0.000      0.000
REMARK  7 active torsions:
REMARK  status: ('A' for Active; 'I' for Inactive)
REMARK    1  A    between atoms: C2_2  and  C3_3 
REMARK    2  A    between atoms: C3_3  and  C4_4 
REMARK    3  A    between atoms: C7_10  and  C9_14 
REMARK    4  A    between atoms: C10_15  and  O4_30 
REMARK    5  A    between atoms: C13_18  and  S1_20 
REMARK    6  A    between atoms: S1_20  and  N5_23 
REMARK    7  A    between atoms: O4_30  and  C20_31 
ROOT
HETATM    1  C9  VIA     1     -60.286 -18.991  -5.483  1.00  0.00     0.045 A 
HETATM    2  C10 VIA     1     -60.423 -20.354  -5.840  1.00  0.00     0.082 A 
HETATM    3  C11 VIA     1     -60.070 -21.343  -4.909  1.00  0.00     0.039 A 
HETATM    4  C12 VIA     1     -59.587 -21.002  -3.643  1.00  0.00     0.028 A 
HETATM    5  C13 VIA     1     -59.446 -19.660  -3.299  1.00  0.00     0.080 A 
HETATM    6  C14 VIA     1     -59.814 -18.659  -4.199  1.00  0.00     0.043 A 
ENDROOT
BRANCH   1   7
HETATM    7  C7  VIA     1     -60.597 -17.834  -6.398  1.00  0.00     0.144 A 
HETATM    8  N3  VIA     1     -59.616 -17.148  -6.919  1.00  0.00    -0.226 NA
HETATM    9  C6  VIA     1     -60.024 -16.106  -7.752  1.00  0.00     0.119 A 
HETATM   10  C4  VIA     1     -59.256 -15.178  -8.473  1.00  0.00     0.086 A 
HETATM   11  C5  VIA     1     -61.329 -15.819  -8.014  1.00  0.00     0.151 A 
HETATM   12  N1  VIA     1     -60.055 -14.338  -9.161  1.00  0.00    -0.174 NA
HETATM   13  N2  VIA     1     -61.310 -14.756  -8.861  1.00  0.00    -0.266 N 
HETATM   14  C22 VIA     1     -62.450 -14.080  -9.430  1.00  0.00     0.180 C 
HETATM   15  C8  VIA     1     -62.401 -16.559  -7.459  1.00  0.00     0.278 A 
HETATM   16  N4  VIA     1     -61.940 -17.563  -6.637  1.00  0.00    -0.305 N 
HETATM   17  O1  VIA     1     -63.593 -16.362  -7.664  1.00  0.00    -0.265 OA
HETATM   18  H8  VIA     1     -62.651 -18.149  -6.220  1.00  0.00     0.170 HD
BRANCH  10  19
HETATM   19  C3  VIA     1     -57.774 -15.046  -8.532  1.00  0.00     0.063 C 
BRANCH  19  20
HETATM   20  C2  VIA     1     -57.242 -14.719  -9.929  1.00  0.00     0.002 C 
HETATM   21  C1  VIA     1     -56.259 -15.758 -10.452  1.00  0.00     0.005 C 
ENDBRANCH  19  20
ENDBRANCH  10  19
ENDBRANCH   1   7
BRANCH   2  22
HETATM   22  O4  VIA     1     -60.890 -20.632  -7.099  1.00  0.00    -0.351 OA
BRANCH  22  23
HETATM   23  C20 VIA     1     -61.617 -21.837  -7.348  1.00  0.00     0.171 C 
HETATM   24  C21 VIA     1     -62.164 -21.854  -8.764  1.00  0.00     0.034 C 
ENDBRANCH  22  23
ENDBRANCH   2  22
BRANCH   5  25
HETATM   25  S1  VIA     1     -58.864 -19.213  -1.676  1.00  0.00     0.261 S 
HETATM   26  O2  VIA     1     -58.844 -20.419  -0.877  1.00  0.00    -0.200 OA
HETATM   27  O3  VIA     1     -57.664 -18.420  -1.856  1.00  0.00    -0.200 OA
BRANCH  25  28
HETATM   28  N5  VIA     1     -60.077 -18.194  -1.081  1.00  0.00    -0.303 N 
HETATM   29  C15 VIA     1     -61.287 -18.846  -0.510  1.00  0.00     0.165 C 
HETATM   30  C16 VIA     1     -62.420 -17.812  -0.347  1.00  0.00     0.292 C 
HETATM   31  N6  VIA     1     -62.009 -16.664   0.490  1.00  0.00     0.087 N 
HETATM   32  C17 VIA     1     -60.810 -16.029  -0.103  1.00  0.00     0.292 C 
HETATM   33  C19 VIA     1     -63.098 -15.694   0.601  1.00  0.00     0.310 C 
HETATM   34  C18 VIA     1     -59.645 -17.026  -0.261  1.00  0.00     0.165 C 
ENDBRANCH  25  28
ENDBRANCH   5  25
TORSDOF 7
ENDMDL
