MODEL 1
REMARK VINA RESULT:      -7.7      0.000      0.000
REMARK  7 active torsions:
REMARK  status: ('A' for Active; 'I' for Inactive)
REMARK    1  A    between atoms: C2_2  and  C3_3 
REMARK    2  A    between atoms: C3_3  and  C4_4 
REMARK    3  A    between atoms: C7_10  and  C9_14 
REMARK    4  A    between atoms: C10_15  and  O4_30 
REMARK    5  A    between atoms: C13_18  and  S1_20 
REMARK    6  A    between atoms: S1_20  and  N5_23 
REMARK    7  A    between atoms: O4_30  and  C20_31 
ROOT
HETATM    1  C9  VIA     1     -42.541 -32.226 -10.852  1.00  0.00     0.045 A 
HETATM    2  C10 VIA     1     -41.484 -31.586 -11.542  1.00  0.00     0.082 A 
HETATM    3  C11 VIA     1     -41.772 -30.845 -12.697  1.00  0.00     0.039 A 
HETATM    4  C12 VIA     1     -43.081 -30.732 -13.174  1.00  0.00     0.028 A 
HETATM    5  C13 VIA     1     -44.117 -31.370 -12.497  1.00  0.00     0.080 A 
HETATM    6  C14 VIA     1     -43.857 -32.092 -11.331  1.00  0.00     0.043 A 
ENDROOT
BRANCH   1   7
HETATM    7  C7  VIA     1     -42.363 -33.078  -9.621  1.00  0.00     0.144 A 
HETATM    8  N3  VIA     1     -42.644 -34.353  -9.678  1.00  0.00    -0.226 NA
HETATM    9  C6  VIA     1     -42.437 -35.039  -8.481  1.00  0.00     0.119 A 
HETATM   10  C4  VIA     1     -42.628 -36.397  -8.178  1.00  0.00     0.086 A 
HETATM   11  C5  VIA     1     -41.976 -34.448  -7.344  1.00  0.00     0.151 A 
HETATM   12  N1  VIA     1     -42.299 -36.645  -6.895  1.00  0.00    -0.174 NA
HETATM   13  N2  VIA     1     -41.906 -35.438  -6.416  1.00  0.00    -0.266 N 
HETATM   14  C22 VIA     1     -41.472 -35.314  -5.046  1.00  0.00     0.180 C 
HETATM   15  C8  VIA     1     -41.664 -33.069  -7.272  1.00  0.00     0.278 A 
HETATM   16  N4  VIA     1     -41.900 -32.441  -8.475  1.00  0.00    -0.305 N 
HETATM   17  O1  VIA     1     -41.235 -32.479  -6.288  1.00  0.00    -0.265 OA
HETATM   18  H8  VIA     1     -41.678 -31.455  -8.506  1.00  0.00     0.170 HD
BRANCH  10  19
HETATM   19  C3  VIA     1     -43.124 -37.484  -9.067  1.00  0.00     0.063 C 
BRANCH  19  20
HETATM   20  C2  VIA     1     -42.020 -38.420  -9.567  1.00  0.00     0.002 C 
HETATM   21  C1  VIA     1     -40.953 -37.702 -10.381  1.00  0.00     0.005 C 
ENDBRANCH  19  20
ENDBRANCH  10  19
ENDBRANCH   1   7
BRANCH   2  22
HETATM   22  O4  VIA     1     -40.217 -31.740 -11.038  1.00  0.00    -0.351 OA
BRANCH  22  23
HETATM   23  C20 VIA     1     -39.270 -32.573 -11.711  1.00  0.00     0.171 C 
HETATM   24  C21 VIA     1     -39.661 -34.036 -11.595  1.00  0.00     0.034 C 
ENDBRANCH  22  23
ENDBRANCH   2  22
BRANCH   5  25
HETATM   25  S1  VIA     1     -45.793 -31.206 -13.074  1.00  0.00     0.261 S 
HETATM   26  O2  VIA     1     -45.780 -31.419 -14.505  1.00  0.00    -0.200 OA
HETATM   27  O3  VIA     1     -46.625 -32.018 -12.209  1.00  0.00    -0.200 OA
BRANCH  25  28
HETATM   28  N5  VIA     1     -46.162 -29.581 -12.778  1.00  0.00    -0.303 N 
HETATM   29  C15 VIA     1     -45.562 -28.963 -11.564  1.00  0.00     0.165 C 
HETATM   30  C16 VIA     1     -46.264 -27.625 -11.248  1.00  0.00     0.292 C 
HETATM   31  N6  VIA     1     -46.206 -26.684 -12.388  1.00  0.00     0.087 N 
HETATM   32  C17 VIA     1     -46.815 -27.320 -13.578  1.00  0.00     0.292 C 
HETATM   33  C19 VIA     1     -46.902 -25.440 -12.061  1.00  0.00     0.310 C 
HETATM   34  C18 VIA     1     -46.125 -28.650 -13.941  1.00  0.00     0.165 C 
ENDBRANCH  25  28
ENDBRANCH   5  25
TORSDOF 7
ENDMDL
