MODEL 1
REMARK VINA RESULT:      -9.2      0.000      0.000
REMARK  7 active torsions:
REMARK  status: ('A' for Active; 'I' for Inactive)
REMARK    1  A    between atoms: C2_2  and  C3_3 
REMARK    2  A    between atoms: C3_3  and  C4_4 
REMARK    3  A    between atoms: C7_10  and  C9_14 
REMARK    4  A    between atoms: C10_15  and  O4_30 
REMARK    5  A    between atoms: C13_18  and  S1_20 
REMARK    6  A    between atoms: S1_20  and  N5_23 
REMARK    7  A    between atoms: O4_30  and  C20_31 
ROOT
HETATM    1  C9  VIA     1     -33.240 -15.019 -18.649  1.00  0.00     0.045 A 
HETATM    2  C10 VIA     1     -32.719 -13.966 -19.437  1.00  0.00     0.082 A 
HETATM    3  C11 VIA     1     -33.424 -13.552 -20.577  1.00  0.00     0.039 A 
HETATM    4  C12 VIA     1     -34.626 -14.164 -20.943  1.00  0.00     0.028 A 
HETATM    5  C13 VIA     1     -35.131 -15.206 -20.170  1.00  0.00     0.080 A 
HETATM    6  C14 VIA     1     -34.460 -15.617 -19.017  1.00  0.00     0.043 A 
ENDROOT
BRANCH   1   7
HETATM    7  C7  VIA     1     -32.567 -15.580 -17.422  1.00  0.00     0.144 A 
HETATM    8  N3  VIA     1     -32.593 -14.898 -16.308  1.00  0.00    -0.226 NA
HETATM    9  C6  VIA     1     -31.942 -15.518 -15.242  1.00  0.00     0.119 A 
HETATM   10  C4  VIA     1     -31.775 -15.085 -13.916  1.00  0.00     0.086 A 
HETATM   11  C5  VIA     1     -31.332 -16.731 -15.335  1.00  0.00     0.151 A 
HETATM   12  N1  VIA     1     -31.083 -15.997 -13.206  1.00  0.00    -0.174 NA
HETATM   13  N2  VIA     1     -30.829 -16.987 -14.099  1.00  0.00    -0.266 N 
HETATM   14  C22 VIA     1     -30.091 -18.156 -13.686  1.00  0.00     0.180 C 
HETATM   15  C8  VIA     1     -31.300 -17.481 -16.535  1.00  0.00     0.278 A 
HETATM   16  N4  VIA     1     -31.945 -16.817 -17.555  1.00  0.00    -0.305 N 
HETATM   17  O1  VIA     1     -30.781 -18.581 -16.682  1.00  0.00    -0.265 OA
HETATM   18  H8  VIA     1     -31.982 -17.304 -18.440  1.00  0.00     0.170 HD
BRANCH  10  19
HETATM   19  C3  VIA     1     -32.246 -13.820 -13.287  1.00  0.00     0.063 C 
BRANCH  19  20
HETATM   20  C2  VIA     1     -33.744 -13.812 -12.972  1.00  0.00     0.002 C 
HETATM   21  C1  VIA     1     -34.182 -12.585 -12.184  1.00  0.00     0.005 C 
ENDBRANCH  19  20
ENDBRANCH  10  19
ENDBRANCH   1   7
BRANCH   2  22
HETATM   22  O4  VIA     1     -31.529 -13.410 -19.040  1.00  0.00    -0.351 OA
BRANCH  22  23
HETATM   23  C20 VIA     1     -31.434 -12.004 -18.805  1.00  0.00     0.171 C 
HETATM   24  C21 VIA     1     -32.294 -11.595 -17.622  1.00  0.00     0.034 C 
ENDBRANCH  22  23
ENDBRANCH   2  22
BRANCH   5  25
HETATM   25  S1  VIA     1     -36.680 -15.970 -20.606  1.00  0.00     0.261 S 
HETATM   26  O2  VIA     1     -37.324 -15.114 -21.580  1.00  0.00    -0.200 OA
HETATM   27  O3  VIA     1     -36.400 -17.359 -20.906  1.00  0.00    -0.200 OA
BRANCH  25  28
HETATM   28  N5  VIA     1     -37.573 -15.915 -19.170  1.00  0.00    -0.303 N 
HETATM   29  C15 VIA     1     -38.689 -14.933 -19.105  1.00  0.00     0.165 C 
HETATM   30  C16 VIA     1     -39.160 -14.760 -17.646  1.00  0.00     0.292 C 
HETATM   31  N6  VIA     1     -39.567 -16.044 -17.037  1.00  0.00     0.087 N 
HETATM   32  C17 VIA     1     -38.439 -17.000 -17.107  1.00  0.00     0.292 C 
HETATM   33  C19 VIA     1     -39.982 -15.845 -15.649  1.00  0.00     0.310 C 
HETATM   34  C18 VIA     1     -37.954 -17.218 -18.554  1.00  0.00     0.165 C 
ENDBRANCH  25  28
ENDBRANCH   5  25
TORSDOF 7
ENDMDL
