MODEL 1
REMARK VINA RESULT:    -8.046      0.000      0.000
REMARK INTER + INTRA:         -10.371
REMARK INTER:                 -10.163
REMARK INTRA:                  -0.208
REMARK UNBOUND:                -0.208
REMARK  6 active torsions:
REMARK  status: ('A' for Active; 'I' for Inactive)
REMARK    1  A    between atoms: C3_3  and  N1_4 
REMARK    2  A    between atoms: C5_6  and  C17_22 
REMARK    3  A    between atoms: C6_7  and  O1_8 
REMARK    4  A    between atoms: C10_12  and  N2_15 
REMARK    5  A    between atoms: C17_22  and  O2_23 
REMARK    6  A    between atoms: C17_22  and  O3_24 
ROOT
HETATM    1  N1  CIP     1      16.777  15.350 -14.111  1.00  0.00     0.099 N 
HETATM    2  C4  CIP     1      17.074  14.074 -14.824  1.00  0.00     0.285 C 
HETATM    3  C5  CIP     1      15.833  13.251 -15.292  1.00  0.00     0.098 C 
HETATM    4  C6  CIP     1      14.768  14.124 -16.034  1.00  0.00     0.135 C 
HETATM    5  C7  CIP     1      15.082  15.633 -15.924  1.00  0.00     0.051 C 
HETATM    6  C8  CIP     1      13.940  16.535 -16.466  1.00  0.00     0.049 C 
HETATM    7  C9  CIP     1      13.122  17.206 -15.354  1.00  0.00     0.204 C 
HETATM    8  C10 CIP     1      14.004  18.052 -14.367  1.00  0.00     0.258 C 
HETATM    9  C11 CIP     1      15.456  17.476 -14.277  1.00  0.00     0.075 C 
HETATM   10  C12 CIP     1      15.459  15.946 -14.456  1.00  0.00     0.232 C 
HETATM   11  F1  CIP     1      12.128  17.962 -15.950  1.00  0.00    -0.247 F 
ENDROOT
BRANCH   8  12
HETATM   12  N2  CIP     1      13.945  19.510 -14.708  1.00  0.00     0.099 N 
HETATM   13  C13 CIP     1      14.163  20.369 -13.506  1.00  0.00     0.302 C 
HETATM   14  C14 CIP     1      15.524  21.082 -13.515  1.00  0.00     0.299 C 
HETATM   15  N3  CIP     1      15.671  21.956 -14.689  1.00  0.00     0.086 N 
HETATM   16  C15 CIP     1      15.003  21.437 -15.896  1.00  0.00     0.299 C 
HETATM   17  H13 CIP     1      16.694  22.058 -14.889  1.00  0.00     0.315 HD
HETATM   18  C16 CIP     1      14.809  19.915 -15.848  1.00  0.00     0.302 C 
ENDBRANCH   8  12
BRANCH   1  19
HETATM   19  C3  CIP     1      16.930  15.188 -12.651  1.00  0.00     0.223 A 
HETATM   20  C1  CIP     1      17.761  16.286 -11.998  1.00  0.00     0.038 A 
HETATM   21  C2  CIP     1      18.358  14.908 -12.196  1.00  0.00     0.038 A 
ENDBRANCH   1  19
BRANCH   4  22
HETATM   22  O1  CIP     1      14.660  13.741 -17.385  1.00  0.00    -0.395 OA
HETATM   23  H4  CIP     1      13.701  13.556 -17.568  1.00  0.00     0.210 HD
ENDBRANCH   4  22
BRANCH   3  24
HETATM   24  C17 CIP     1      15.200  12.362 -14.188  1.00  0.00     0.262 C 
BRANCH  24  25
HETATM   25  O2  CIP     1      14.134  13.026 -13.554  1.00  0.00    -0.371 OA
HETATM   26  H12 CIP     1      14.518  13.726 -12.967  1.00  0.00     0.212 HD
ENDBRANCH  24  25
BRANCH  24  27
HETATM   27  O3  CIP     1      14.787  11.121 -14.697  1.00  0.00    -0.371 OA
HETATM   28  H18 CIP     1      14.003  11.300 -15.278  1.00  0.00     0.212 HD
ENDBRANCH  24  27
ENDBRANCH   3  24
TORSDOF 6
ENDMDL
