MODEL 1
REMARK VINA RESULT:    -8.052      0.000      0.000
REMARK INTER + INTRA:         -10.242
REMARK INTER:                  -9.700
REMARK INTRA:                  -0.543
REMARK UNBOUND:                -0.543
REMARK  5 active torsions:
REMARK  status: ('A' for Active; 'I' for Inactive)
REMARK    1  A    between atoms: C7_9  and  C18_24 
REMARK    2  A    between atoms: C8_10  and  O2_11 
REMARK    3  A    between atoms: C12_15  and  N2_16 
REMARK    4  A    between atoms: C18_24  and  O3_25 
REMARK    5  A    between atoms: C18_24  and  O4_26 
ROOT
HETATM    1  C1  LEV     1      15.816  17.531 -11.389  1.00  0.00     0.045 C 
HETATM    2  C2  LEV     1      16.314  17.489 -12.835  1.00  0.00     0.243 C 
HETATM    3  C3  LEV     1      17.860  17.611 -12.878  1.00  0.00     0.203 C 
HETATM    4  O1  LEV     1      18.517  16.450 -12.403  1.00  0.00    -0.379 OA
HETATM    5  C4  LEV     1      18.010  15.235 -12.950  1.00  0.00     0.191 C 
HETATM    6  C5  LEV     1      16.909  15.417 -14.030  1.00  0.00     0.261 C 
HETATM    7  N1  LEV     1      15.819  16.237 -13.472  1.00  0.00     0.103 N 
HETATM    8  C6  LEV     1      14.794  16.514 -14.499  1.00  0.00     0.285 C 
HETATM    9  C7  LEV     1      14.159  15.197 -14.997  1.00  0.00     0.098 C 
HETATM   10  C8  LEV     1      15.255  14.240 -15.536  1.00  0.00     0.135 C 
HETATM   11  C9  LEV     1      16.370  14.041 -14.482  1.00  0.00     0.054 C 
HETATM   12  C10 LEV     1      17.524  13.175 -15.038  1.00  0.00     0.049 C 
HETATM   13  C11 LEV     1      18.645  13.005 -13.999  1.00  0.00     0.206 C 
HETATM   14  C12 LEV     1      19.168  14.394 -13.533  1.00  0.00     0.287 C 
HETATM   15  F1  LEV     1      18.140  12.270 -12.938  1.00  0.00    -0.247 F 
ENDROOT
BRANCH  14  16
HETATM   16  N2  LEV     1      20.331  14.348 -12.603  1.00  0.00     0.102 N 
HETATM   17  C13 LEV     1      20.010  14.096 -11.187  1.00  0.00     0.303 C 
HETATM   18  C14 LEV     1      21.261  14.330 -10.328  1.00  0.00     0.302 C 
HETATM   19  N3  LEV     1      22.406  13.506 -10.770  1.00  0.00     0.087 N 
HETATM   20  C15 LEV     1      22.657  13.634 -12.221  1.00  0.00     0.302 C 
HETATM   21  C17 LEV     1      22.290  12.101 -10.343  1.00  0.00     0.310 C 
HETATM   22  C16 LEV     1      21.387  13.426 -13.059  1.00  0.00     0.303 C 
ENDBRANCH  14  16
BRANCH  10  23
HETATM   23  O2  LEV     1      14.700  13.002 -15.911  1.00  0.00    -0.395 OA
HETATM   24  H6  LEV     1      14.104  12.704 -15.174  1.00  0.00     0.210 HD
ENDBRANCH  10  23
BRANCH   9  25
HETATM   25  C18 LEV     1      13.064  15.462 -16.060  1.00  0.00     0.262 C 
BRANCH  25  26
HETATM   26  O3  LEV     1      11.935  14.673 -15.797  1.00  0.00    -0.371 OA
HETATM   27  H12 LEV     1      12.208  13.730 -15.952  1.00  0.00     0.212 HD
ENDBRANCH  25  26
BRANCH  25  28
HETATM   28  O4  LEV     1      13.549  15.163 -17.345  1.00  0.00    -0.371 OA
HETATM   29  H20 LEV     1      13.375  15.960 -17.910  1.00  0.00     0.212 HD
ENDBRANCH  25  28
ENDBRANCH   9  25
TORSDOF 5
ENDMDL
