MODEL 1
REMARK VINA RESULT:    -6.693      0.000      0.000
REMARK INTER + INTRA:          -8.631
REMARK INTER:                  -8.063
REMARK INTRA:                  -0.569
REMARK UNBOUND:                -0.569
REMARK  5 active torsions:
REMARK  status: ('A' for Active; 'I' for Inactive)
REMARK    1  A    between atoms: C2_2  and  N1_3 
REMARK    2  A    between atoms: C4_5  and  C12_15 
REMARK    3  A    between atoms: C5_6  and  O1_7 
REMARK    4  A    between atoms: C12_15  and  O2_16 
REMARK    5  A    between atoms: C12_15  and  O3_17 
ROOT
HETATM    1  N1  NDX     1      15.850  16.289 -13.570  1.00  0.00     0.122 N 
HETATM    2  C3  NDX     1      14.794  16.422 -14.593  1.00  0.00     0.287 C 
HETATM    3  C4  NDX     1      14.083  15.073 -14.799  1.00  0.00     0.098 C 
HETATM    4  C5  NDX     1      15.119  14.016 -15.256  1.00  0.00     0.136 C 
HETATM    5  C6  NDX     1      16.303  13.935 -14.261  1.00  0.00     0.079 C 
HETATM    6  C7  NDX     1      16.910  15.337 -13.993  1.00  0.00     0.460 C 
HETATM    7  N2  NDX     1      17.958  15.242 -12.951  1.00  0.00     0.122 N 
HETATM    8  C8  NDX     1      18.881  14.091 -13.078  1.00  0.00     0.219 C 
HETATM    9  C9  NDX     1      18.814  13.411 -14.457  1.00  0.00     0.036 C 
HETATM   10  C10 NDX     1      17.384  12.945 -14.767  1.00  0.00     0.013 C 
HETATM   11  C11 NDX     1      20.306  14.565 -12.788  1.00  0.00     0.042 C 
HETATM   12  H7  NDX     1      17.492  15.173 -12.014  1.00  0.00     0.319 HD
ENDROOT
BRANCH   3  13
HETATM   13  C12 NDX     1      12.892  15.229 -15.782  1.00  0.00     0.262 C 
BRANCH  13  14
HETATM   14  O2  NDX     1      13.282  14.954 -17.105  1.00  0.00    -0.371 OA
HETATM   15  H12 NDX     1      13.113  13.991 -17.275  1.00  0.00     0.212 HD
ENDBRANCH  13  14
BRANCH  13  16
HETATM   16  O3  NDX     1      11.815  14.403 -15.413  1.00  0.00    -0.371 OA
HETATM   17  H12 NDX     1      11.198  14.961 -14.870  1.00  0.00     0.212 HD
ENDBRANCH  13  16
ENDBRANCH   3  13
BRANCH   4  18
HETATM   18  O1  NDX     1      14.521  12.752 -15.411  1.00  0.00    -0.394 OA
HETATM   19  H4  NDX     1      15.239  12.070 -15.336  1.00  0.00     0.210 HD
ENDBRANCH   4  18
BRANCH   1  20
HETATM   20  C2  NDX     1      16.361  17.615 -13.136  1.00  0.00     0.271 C 
HETATM   21  C1  NDX     1      15.272  18.618 -12.734  1.00  0.00     0.037 C 
ENDBRANCH   1  20
TORSDOF 5
ENDMDL
