MODEL 1
REMARK VINA RESULT:    -6.441      0.000      0.000
REMARK INTER + INTRA:          -9.956
REMARK INTER:                  -9.076
REMARK INTRA:                  -0.880
REMARK UNBOUND:                -0.880
REMARK  9 active torsions:
REMARK  status: ('A' for Active; 'I' for Inactive)
REMARK    1  A    between atoms: C3_3  and  C15_20 
REMARK    2  A    between atoms: C5_7  and  N2_10 
REMARK    3  A    between atoms: C6_8  and  O1_9 
REMARK    4  A    between atoms: N2_10  and  C7_11 
REMARK    5  A    between atoms: C7_11  and  O2_12 
REMARK    6  A    between atoms: C7_11  and  C8_13 
REMARK    7  A    between atoms: C8_13  and  C9_14 
REMARK    8  A    between atoms: C15_20  and  O3_21 
REMARK    9  A    between atoms: C15_20  and  O4_22 
ROOT
HETATM    1  C1  PEN     1      16.780  20.103 -12.329  1.00  0.00     0.029 C 
HETATM    2  C2  PEN     1      16.158  19.511 -13.614  1.00  0.00     0.039 C 
HETATM    3  C3  PEN     1      15.095  20.414 -14.350  1.00  0.00     0.299 C 
HETATM    4  N1  PEN     1      13.843  19.671 -14.615  1.00  0.00     0.146 N 
HETATM    5  C4  PEN     1      13.798  18.364 -13.959  1.00  0.00     0.326 A 
HETATM    6  S1  PEN     1      15.363  17.951 -13.132  1.00  0.00    -0.119 SA
HETATM    7  C5  PEN     1      13.526  17.620 -15.271  1.00  0.00     0.325 A 
HETATM    8  C6  PEN     1      13.676  18.999 -15.923  1.00  0.00     0.395 A 
HETATM    9  C16 PEN     1      17.322  19.178 -14.570  1.00  0.00     0.029 C 
ENDROOT
BRANCH   7  10
HETATM   10  N2  PEN     1      14.536  16.602 -15.635  1.00  0.00     0.124 N 
HETATM   11  H7  PEN     1      15.119  16.923 -16.439  1.00  0.00     0.320 HD
BRANCH  10  12
HETATM   12  C7  PEN     1      13.906  15.310 -15.961  1.00  0.00     0.354 C 
BRANCH  12  13
HETATM   13  O2  PEN     1      14.191  14.968 -17.294  1.00  0.00    -0.368 OA
HETATM   14  H4  PEN     1      14.511  14.028 -17.286  1.00  0.00     0.212 HD
ENDBRANCH  12  13
BRANCH  12  15
HETATM   15  C8  PEN     1      14.475  14.218 -15.037  1.00  0.00     0.068 C 
BRANCH  15  16
HETATM   16  C9  PEN     1      15.967  14.430 -14.686  1.00  0.00    -0.010 C 
HETATM   17  C10 PEN     1      16.174  14.349 -13.162  1.00  0.00     0.005 C 
HETATM   18  C11 PEN     1      17.626  14.684 -12.763  1.00  0.00     0.000 C 
HETATM   19  C12 PEN     1      18.662  14.313 -13.843  1.00  0.00     0.000 C 
HETATM   20  C13 PEN     1      18.200  13.116 -14.677  1.00  0.00     0.000 C 
HETATM   21  C14 PEN     1      16.884  13.413 -15.421  1.00  0.00     0.005 C 
ENDBRANCH  15  16
ENDBRANCH  12  15
ENDBRANCH  10  12
ENDBRANCH   7  10
BRANCH   8  22
HETATM   22  O1  PEN     1      14.795  19.113 -16.766  1.00  0.00    -0.366 OA
HETATM   23  H2  PEN     1      14.604  18.546 -17.557  1.00  0.00     0.212 HD
ENDBRANCH   8  22
BRANCH   3  24
HETATM   24  C15 PEN     1      14.680  21.731 -13.651  1.00  0.00     0.289 C 
BRANCH  24  25
HETATM   25  O3  PEN     1      14.455  22.746 -14.594  1.00  0.00    -0.369 OA
HETATM   26  H12 PEN     1      15.318  22.902 -15.059  1.00  0.00     0.212 HD
ENDBRANCH  24  25
BRANCH  24  27
HETATM   27  O4  PEN     1      13.543  21.536 -12.852  1.00  0.00    -0.369 OA
HETATM   28  H15 PEN     1      13.756  20.796 -12.226  1.00  0.00     0.212 HD
ENDBRANCH  24  27
ENDBRANCH   3  24
TORSDOF 9
ENDMDL
