@<TRIPOS>MOLECULE
*****
 59 62 0 0 0
SMALL
GASTEIGER

@<TRIPOS>ATOM
      1  N         16.0184   17.5811  -14.4732 N.am    1  MEZ1       -0.2836
      2  N         15.0106   19.1883  -15.7972 N.am    1  MEZ1       -0.2016
      3  N         13.3144   19.1815  -17.2244 N.am    1  MEZ1       -0.1529
      4  N         16.1335   18.4288  -11.6921 N.am    1  MEZ1       -0.2999
      5  N         16.9591   19.5666   -9.2260 N.am    1  MEZ1       -0.2708
      6  CA        16.9544   17.0386  -13.4767 C.3     1  MEZ1        0.1261
      7  CA        16.0178   18.4559  -10.2001 C.3     1  MEZ1        0.1277
      8  CA        17.9545   20.5918   -8.8714 C.3     1  MEZ1        0.1379
      9  C         15.9848   18.8629  -14.8996 C.2     1  MEZ1        0.3109
     10  C         14.9419   20.5684  -16.2921 C.3     1  MEZ1        0.0798
     11  C         14.0353   18.4255  -16.3655 C.2     1  MEZ1        0.3320
     12  C         13.7924   20.5542  -17.2967 C.3     1  MEZ1        0.0931
     13  C         10.7763   19.9092  -18.1343 C.3     1  MEZ1        0.0739
     14  C         16.3761   17.1420  -12.0723 C.2     1  MEZ1        0.2386
     15  C         17.4556   18.2275   -9.6556 C.3     1  MEZ1        0.1005
     16  C         19.3018   19.8685   -8.6455 C.3     1  MEZ1        0.0417
     17  C         20.4869   20.8118   -8.9524 C.3     1  MEZ1       -0.0484
     18  C         19.4443   19.3315   -7.1985 C.3     1  MEZ1       -0.0484
     19  C         15.6955   19.8027   -9.6048 C.2     1  MEZ1        0.2402
     20  C         17.5288   21.5347   -7.7498 C.2     1  MEZ1        0.3269
     21  C         17.4035   15.6176  -13.8129 C.ar    1  MEZ1       -0.0184
     22  C         18.6949   15.2090  -13.4698 C.ar    1  MEZ1       -0.0563
     23  C         19.1319   13.9200  -13.7701 C.ar    1  MEZ1       -0.0614
     24  C         18.2811   13.0286  -14.4193 C.ar    1  MEZ1       -0.0617
     25  C         16.9904   13.4251  -14.7605 C.ar    1  MEZ1       -0.0614
     26  C         16.5505   14.7117  -14.4547 C.ar    1  MEZ1       -0.0563
     27  O         16.7828   19.6864  -14.4904 O.2     1  MEZ1       -0.2521
     28  O         13.8467   17.2403  -16.1693 O.2     1  MEZ1       -0.2503
     29  O         12.5639   18.7779  -19.5998 O.2     1  MEZ1       -0.1551
     30  O         11.5044   17.4129  -17.8149 O.2     1  MEZ1       -0.1551
     31  O         16.0112   16.1564  -11.4546 O.2     1  MEZ1       -0.2734
     32  O         15.2983   20.8891   -9.9764 O.2     1  MEZ1       -0.2734
     33  O         16.7698   20.9945   -6.8319 O.3     1  MEZ1       -0.4793
     34  OXT       17.9183   22.6801   -7.6610 O.2     1  MEZ1       -0.2489
     35  H01       15.3233   16.9420  -14.8295 H       1  MEZ1        0.1513
     36  H02       16.4967   19.2084  -12.2202 H       1  MEZ1        0.1496
     37  H03       17.8411   17.6794  -13.4731 H       1  MEZ1        0.0646
     38  H04       15.3109   17.7014   -9.8261 H       1  MEZ1        0.0622
     39  H05       18.0519   21.2294   -9.7553 H       1  MEZ1        0.0631
     40  H06       14.7018   21.2379  -15.4614 H       1  MEZ1        0.0545
     41  H07       14.1492   20.7664  -18.3080 H       1  MEZ1        0.0559
     42  H08       10.4414   19.9587  -17.0953 H       1  MEZ1        0.0482
     43  H09       11.1911   20.8701  -18.4486 H       1  MEZ1        0.0482
     44  H10        9.9450   19.6289  -18.7863 H       1  MEZ1        0.0482
     45  H11       17.2532   17.5313   -8.8276 H       1  MEZ1        0.0640
     46  H12       21.4368   20.2830   -8.8438 H       1  MEZ1        0.0244
     47  H13       20.4262   21.1885   -9.9762 H       1  MEZ1        0.0244
     48  H14       20.4939   21.6676   -8.2733 H       1  MEZ1        0.0244
     49  H15       19.5143   20.1482   -6.4761 H       1  MEZ1        0.0244
     50  H16       18.5914   18.7056   -6.9257 H       1  MEZ1        0.0244
     51  H17       20.3488   18.7261   -7.1042 H       1  MEZ1        0.0244
     52  H18       19.3673   15.8963  -12.9616 H       1  MEZ1        0.0621
     53  H19       20.1378   13.6098  -13.4980 H       1  MEZ1        0.0618
     54  H20       18.6225   12.0239  -14.6567 H       1  MEZ1        0.0618
     55  H21       16.3239   12.7296  -15.2650 H       1  MEZ1        0.0618
     56  H22       15.5363   14.9990  -14.7218 H       1  MEZ1        0.0621
     57  H23       16.5793   21.7004   -6.1893 H       1  MEZ1        0.2951
     58  S         12.0375   18.6666  -18.2684 S.O2    1  MEZ1        0.0462
     59  S         19.2606   18.4796   -9.8133 S.3     1  MEZ1       -0.1273
@<TRIPOS>BOND
     1    29    58    2
     2    44    13    1
     3    13    58    1
     4    13    43    1
     5    13    42    1
     6    58    30    2
     7    58     3    1
     8    41    12    1
     9    12     3    1
    10    12    10    1
    11     3    11   am
    12    11    28    2
    13    11     2   am
    14    10     2    1
    15    10    40    1
    16     2     9   am
    17    55    25    1
    18    25    26   ar
    19    25    24   ar
    20    56    26    1
    21    54    24    1
    22     9     1   am
    23     9    27    2
    24    35     1    1
    25    26    21   ar
    26    24    23   ar
    27     1     6    1
    28    21     6    1
    29    21    22   ar
    30    23    53    1
    31    23    22   ar
    32    37     6    1
    33     6    14    1
    34    22    52    1
    35    14    31    2
    36    14     4   am
    37    36     4    1
    38     4     7    1
    39    32    19    2
    40    38     7    1
    41     7    19    1
    42     7    15    1
    43    47    17    1
    44    19     5   am
    45    59    15    1
    46    59    16    1
    47    39     8    1
    48    46    17    1
    49    17    16    1
    50    17    48    1
    51    15     5    1
    52    15    45    1
    53     5     8    1
    54     8    16    1
    55     8    20    1
    56    16    18    1
    57    20    34    2
    58    20    33    1
    59    51    18    1
    60    18    49    1
    61    18    50    1
    62    33    57    1
