@<TRIPOS>MOLECULE
pea.pdb
 37 36 0 0 0
SMALL
GASTEIGER

@<TRIPOS>ATOM
      1  O          6.5910    2.9020   12.1790 O.3     1  PEA1       -0.2828
      2  P          5.4050    1.9870   12.7980 P.3     1  PEA1        0.4751
      3  O          5.2500    0.6430   12.1480 O.2     1  PEA1       -0.2273
      4  O          5.7030    1.9400   14.3880 O.3     1  PEA1       -0.2854
      5  C          4.6410    1.7300   15.3040 C.3     1  PEA1        0.0713
      6  C          4.8160    0.3650   15.9500 C.3     1  PEA1        0.0172
      7  N          5.1420    0.5030   17.3620 N.3     1  PEA1       -0.3279
      8  H          5.0530    1.4790   17.6410 H       1  PEA1        0.1183
      9  H          4.4650   -0.0170   17.9180 H       1  PEA1        0.1183
     10  O          4.1030    2.9400   12.6650 O.3     1  PEA1       -0.3025
     11  H          3.2130    2.5300   12.6880 H       1  PEA1        0.2220
     12  C          6.2440    4.1360   11.5730 C.3     1  PEA1        0.0993
     13  C          6.6590    5.2910   12.4760 C.3     1  PEA1        0.1605
     14  O          5.8840    6.4420   12.1340 O.3     1  PEA1       -0.4557
     15  C          5.2330    7.0420   13.1720 C.2     1  PEA1        0.3044
     16  O          5.6940    7.8930   13.9210 O.2     1  PEA1       -0.2512
     17  C          3.8390    6.5020   13.2710 C.3     1  PEA1        0.0332
     18  C          8.1300    5.6420   12.2920 C.3     1  PEA1        0.1315
     19  O          8.8910    4.9850   13.2990 O.3     1  PEA1       -0.4610
     20  C         10.1890    4.7030   12.9740 C.2     1  PEA1        0.3041
     21  O         10.9520    5.4330   12.3570 O.2     1  PEA1       -0.2512
     22  C         10.5570    3.3450   13.4900 C.3     1  PEA1        0.0332
     23  H          3.7060    1.7650   14.7850 H       1  PEA1        0.0578
     24  H          4.6520    2.4920   16.0550 H       1  PEA1        0.0578
     25  H          5.6080   -0.1590   15.4560 H       1  PEA1        0.0444
     26  H          3.8990   -0.1790   15.8600 H       1  PEA1        0.0444
     27  H          5.1860    4.1700   11.4170 H       1  PEA1        0.0604
     28  H          6.7500    4.2230   10.6340 H       1  PEA1        0.0604
     29  H          6.4980    4.9950   13.4920 H       1  PEA1        0.0792
     30  H          3.6840    5.7720   12.5040 H       1  PEA1        0.0342
     31  H          3.1380    7.3010   13.1510 H       1  PEA1        0.0342
     32  H          3.7000    6.0470   14.2290 H       1  PEA1        0.0342
     33  H          8.2600    6.7010   12.3770 H       1  PEA1        0.0736
     34  H          8.4600    5.3250   11.3250 H       1  PEA1        0.0736
     35  H          9.7160    2.9140   13.9920 H       1  PEA1        0.0342
     36  H         11.3750    3.4330   14.1750 H       1  PEA1        0.0342
     37  H         10.8430    2.7180   12.6720 H       1  PEA1        0.0342
@<TRIPOS>BOND
     1     1     2    1
     2     1    12    1
     3     2     3    2
     4     2     4    1
     5     2    10    1
     6     4     5    1
     7     5     6    1
     8     5    23    1
     9     5    24    1
    10     6     7    1
    11     6    25    1
    12     6    26    1
    13     7     8    1
    14     7     9    1
    15    10    11    1
    16    12    13    1
    17    12    27    1
    18    12    28    1
    19    13    14    1
    20    13    18    1
    21    13    29    1
    22    14    15    1
    23    15    16    2
    24    15    17    1
    25    17    30    1
    26    17    31    1
    27    17    32    1
    28    18    19    1
    29    18    33    1
    30    18    34    1
    31    19    20    1
    32    20    21    2
    33    20    22    1
    34    22    35    1
    35    22    36    1
    36    22    37    1
