REMARK  13 active torsions:
REMARK  status: ('A' for Active; 'I' for Inactive)
REMARK    1  A    between atoms: O_1  and  P_2 
REMARK    2  A    between atoms: O_1  and  C_12 
REMARK    3  A    between atoms: P_2  and  O_4 
REMARK    4  A    between atoms: P_2  and  O_10 
REMARK    5  A    between atoms: O_4  and  C_5 
REMARK    6  A    between atoms: C_5  and  C_6 
REMARK    7  A    between atoms: C_6  and  N_7 
REMARK    8  A    between atoms: C_12  and  C_13 
REMARK    9  A    between atoms: C_13  and  O_14 
REMARK   10  A    between atoms: C_13  and  C_18 
REMARK   11  A    between atoms: O_14  and  C_15 
REMARK   12  A    between atoms: C_18  and  O_19 
REMARK   13  A    between atoms: O_19  and  C_20 
ROOT
HETATM    1  O   PEA A   1       6.591   2.902  12.179  1.00  0.00    -0.275 OA
ENDROOT
BRANCH   1   2
HETATM    2  P   PEA A   1       5.405   1.987  12.798  1.00  0.00     0.395 P 
HETATM    3  O   PEA A   1       5.250   0.643  12.148  1.00  0.00    -0.631 OA
BRANCH   2   4
HETATM    4  O   PEA A   1       5.703   1.940  14.388  1.00  0.00    -0.276 OA
BRANCH   4   5
HETATM    5  C   PEA A   1       4.641   1.730  15.304  1.00  0.00     0.188 C 
BRANCH   5   6
HETATM    6  C   PEA A   1       4.816   0.365  15.950  1.00  0.00     0.274 C 
BRANCH   6   7
HETATM    7  N   PEA A   1       5.142   0.503  17.362  1.00  0.00     0.097 N 
HETATM    8  H   PEA A   1       5.053   1.479  17.641  1.00  0.00     0.314 HD
HETATM    9  H   PEA A   1       4.465  -0.017  17.918  1.00  0.00     0.314 HD
ENDBRANCH   6   7
ENDBRANCH   5   6
ENDBRANCH   4   5
ENDBRANCH   2   4
BRANCH   2  10
HETATM   10  O   PEA A   1       4.103   2.940  12.665  1.00  0.00    -0.307 OA
HETATM   11  H   PEA A   1       3.213   2.530  12.688  1.00  0.00     0.222 HD
ENDBRANCH   2  10
ENDBRANCH   1   2
BRANCH   1  12
HETATM   12  C   PEA A   1       6.244   4.136  11.573  1.00  0.00     0.186 C 
BRANCH  12  13
HETATM   13  C   PEA A   1       6.659   5.291  12.476  1.00  0.00     0.184 C 
BRANCH  13  14
HETATM   14  O   PEA A   1       5.884   6.442  12.134  1.00  0.00    -0.299 OA
BRANCH  14  15
HETATM   15  C   PEA A   1       5.233   7.042  13.172  1.00  0.00     0.273 C 
HETATM   16  O   PEA A   1       5.694   7.893  13.921  1.00  0.00    -0.264 OA
HETATM   17  C   PEA A   1       3.839   6.502  13.271  1.00  0.00     0.106 C 
ENDBRANCH  14  15
ENDBRANCH  13  14
BRANCH  13  18
HETATM   18  C   PEA A   1       8.130   5.642  12.292  1.00  0.00     0.184 C 
BRANCH  18  19
HETATM   19  O   PEA A   1       8.891   4.985  13.299  1.00  0.00    -0.299 OA
BRANCH  19  20
HETATM   20  C   PEA A   1      10.189   4.703  12.974  1.00  0.00     0.273 C 
HETATM   21  O   PEA A   1      10.952   5.433  12.357  1.00  0.00    -0.264 OA
HETATM   22  C   PEA A   1      10.557   3.345  13.490  1.00  0.00     0.106 C 
ENDBRANCH  19  20
ENDBRANCH  18  19
ENDBRANCH  13  18
ENDBRANCH  12  13
ENDBRANCH   1  12
TORSDOF 13
