@<TRIPOS>MOLECULE
*****
 69 71 0 0 0
SMALL
GASTEIGER

@<TRIPOS>ATOM
      1  C1         8.4036  -31.6134   -4.4293 C.3     1  TOB1       -0.0175
      2  N1         9.0757  -33.6876   -5.6515 N.3     1  TOB1       -0.3250
      3  O1        10.9219  -32.1583   -2.7459 O.3     1  TOB1       -0.3413
      4  C2         8.9810  -30.5088   -5.3497 C.3     1  TOB1        0.0355
      5  N2         9.0176  -32.5930    1.6715 N.3     1  TOB1       -0.3229
      6  O2        11.6803  -33.9001   -1.3150 O.3     1  TOB1       -0.3406
      7  C3        10.4747  -30.2154   -5.0117 C.3     1  TOB1        0.1051
      8  N3         7.4546  -29.8287   -0.1866 N.3     1  TOB1       -0.3276
      9  O3        10.4146  -37.1511   -0.3328 O.3     1  TOB1       -0.3924
     10  C4        11.3444  -31.5087   -5.0079 C.3     1  TOB1        0.1104
     11  N4        11.9334  -27.2833   -3.3589 N.3     1  TOB1       -0.3231
     12  O4        10.1157  -35.2551    1.7452 O.3     1  TOB1       -0.3875
     13  C5        10.7524  -32.6225   -4.0999 C.3     1  TOB1        0.1051
     14  N5         8.8018  -30.8335   -6.7776 N.3     1  TOB1       -0.3250
     15  O5        11.2802  -31.1810   -0.2186 O.3     1  TOB1       -0.3851
     16  C6         9.2476  -32.9123   -4.4069 C.3     1  TOB1        0.0355
     17  O6        11.4580  -32.0506   -6.3124 O.3     1  TOB1       -0.3865
     18  C7        10.5882  -33.0245   -1.6566 C.3     1  TOB1        0.1874
     19  O7        10.6354  -29.6634   -3.6780 O.3     1  TOB1       -0.3423
     20  C8        10.2662  -32.1571   -0.4222 C.3     1  TOB1        0.1234
     21  O8         9.6749  -28.7593   -1.7485 O.3     1  TOB1       -0.3427
     22  C9        10.1847  -33.0048    0.8690 C.3     1  TOB1        0.0647
     23  O9         8.0654  -25.5604   -1.0236 O.3     1  TOB1       -0.3891
     24  C10       10.1140  -34.5062    0.5317 C.3     1  TOB1        0.1012
     25  C11       11.3266  -34.9365   -0.3659 C.3     1  TOB1        0.1120
     26  C12       11.0273  -36.2043   -1.1906 C.3     1  TOB1        0.0730
     27  C13        9.8178  -28.5896   -3.1775 C.3     1  TOB1        0.1752
     28  C14       10.4641  -27.2082   -3.4591 C.3     1  TOB1        0.0590
     29  C15        9.9282  -26.1389   -2.4706 C.3     1  TOB1       -0.0044
     30  C16        8.5617  -26.5668   -1.8907 C.3     1  TOB1        0.0842
     31  C17        8.6979  -27.8951   -1.1073 C.3     1  TOB1        0.0998
     32  C18        7.3413  -28.6250   -1.0232 C.3     1  TOB1        0.0221
     33  H01        7.3760  -31.8419   -4.7229 H       1  TOB1        0.0297
     34  H02        8.3524  -31.2214   -3.4102 H       1  TOB1        0.0297
     35  H03        9.3502  -33.1376   -6.4620 H       1  TOB1        0.1185
     36  H04        9.6516  -34.5274   -5.6313 H       1  TOB1        0.1185
     37  H05        8.3901  -29.6060   -5.1985 H       1  TOB1        0.0485
     38  H06        8.9800  -33.1437    2.5275 H       1  TOB1        0.1186
     39  H07        9.1044  -31.6149    1.9411 H       1  TOB1        0.1186
     40  H08       10.8817  -29.4931   -5.7248 H       1  TOB1        0.0639
     41  H09        6.5757  -30.3417   -0.1848 H       1  TOB1        0.1183
     42  H10        8.1686  -30.4403   -0.5756 H       1  TOB1        0.1183
     43  H11       10.0080  -36.5870    0.3640 H       1  TOB1        0.2095
     44  H12       12.3475  -31.2550   -4.6524 H       1  TOB1        0.0646
     45  H13       12.1845  -27.5807   -2.4175 H       1  TOB1        0.1186
     46  H14       12.2715  -28.0139   -3.9823 H       1  TOB1        0.1186
     47  H15       11.0320  -35.5420    1.8910 H       1  TOB1        0.2100
     48  H16       11.3418  -33.5380   -4.2083 H       1  TOB1        0.0639
     49  H17        9.1371  -30.0634   -7.3531 H       1  TOB1        0.1185
     50  H18        9.3642  -31.6456   -7.0207 H       1  TOB1        0.1185
     51  H19       11.0870  -30.7870    0.6420 H       1  TOB1        0.2101
     52  H20        8.8355  -33.5471   -3.6234 H       1  TOB1        0.0485
     53  H21       10.7450  -32.7140   -6.3180 H       1  TOB1        0.2100
     54  H22        9.7190  -33.6380   -1.9223 H       1  TOB1        0.0937
     55  H23        9.3160  -31.6545   -0.6071 H       1  TOB1        0.0660
     56  H24       11.0881  -32.8410    1.4648 H       1  TOB1        0.0512
     57  H25        7.9190  -24.7880   -1.5850 H       1  TOB1        0.2099
     58  H26        9.1759  -34.7003    0.0022 H       1  TOB1        0.0636
     59  H27       12.2056  -35.1161    0.2602 H       1  TOB1        0.0646
     60  H28       10.3431  -35.9658   -2.0091 H       1  TOB1        0.0584
     61  H29       11.9529  -36.6133   -1.6052 H       1  TOB1        0.0584
     62  H30        8.8070  -28.6521   -3.5962 H       1  TOB1        0.0926
     63  H31       10.1967  -26.9140   -4.4775 H       1  TOB1        0.0509
     64  H32        9.8452  -25.1764   -2.9808 H       1  TOB1        0.0308
     65  H33       10.6299  -26.0077   -1.6415 H       1  TOB1        0.0308
     66  H34        7.8541  -26.6956   -2.7151 H       1  TOB1        0.0620
     67  H35        9.0579  -27.6883   -0.0948 H       1  TOB1        0.0635
     68  H36        6.5929  -27.9573   -0.5876 H       1  TOB1        0.0448
     69  H37        7.0148  -28.9123   -2.0260 H       1  TOB1        0.0448
@<TRIPOS>BOND
     1    49    14    1
     2    50    14    1
     3    14     4    1
     4    53    17    1
     5    17    10    1
     6    40     7    1
     7    35     2    1
     8     2    36    1
     9     2    16    1
    10    10     7    1
    11    10    44    1
    12    10    13    1
    13     4     7    1
    14     4    37    1
    15     4     1    1
    16     7    19    1
    17    63    28    1
    18    33     1    1
    19    48    13    1
    20     1    16    1
    21     1    34    1
    22    16    13    1
    23    16    52    1
    24    13     3    1
    25    62    27    1
    26    19    27    1
    27    28    11    1
    28    28    27    1
    29    28    29    1
    30    11    46    1
    31    11    45    1
    32    27    21    1
    33    64    29    1
    34    66    30    1
    35     3    18    1
    36    29    30    1
    37    29    65    1
    38    69    32    1
    39    30    31    1
    40    30    23    1
    41    54    18    1
    42    60    26    1
    43    21    31    1
    44    18     6    1
    45    18    20    1
    46    57    23    1
    47    32    31    1
    48    32    68    1
    49    32     8    1
    50    31    67    1
    51     6    25    1
    52    26    61    1
    53    26     9    1
    54    26    25    1
    55    55    20    1
    56    41     8    1
    57     9    43    1
    58    20    15    1
    59    20    22    1
    60     8    42    1
    61    15    51    1
    62    25    59    1
    63    25    24    1
    64    58    24    1
    65    24    22    1
    66    24    12    1
    67    22    56    1
    68    22     5    1
    69    39     5    1
    70     5    38    1
    71    12    47    1
