@<TRIPOS>MOLECULE
pyc_h.pdb
   27    29     1     0     0
SMALL
bcc


@<TRIPOS>ATOM
      1 O           10.7370    10.8960   -10.7870 o          1 PYC      -0.415100
      2 N            8.9150     7.8300    -7.4470 na         1 PYC       0.045900
      3 N1          10.9540     9.6770    -8.3030 nb         1 PYC      -0.490000
      4 C            8.8180     8.4540    -8.7000 ca         1 PYC       0.002100
      5 C1          10.0330     8.1220    -6.6080 ca         1 PYC      -0.085600
      6 C2           9.9370     9.4090    -9.0650 ca         1 PYC       0.314800
      7 C3          11.0200     9.0350    -7.0570 ca         1 PYC       0.362600
      8 C4           7.9360     6.8810    -6.9210 c3         1 PYC      -0.044400
      9 C5           7.8440     8.3000    -9.6150 c6         1 PYC      -0.050900
     10 C6          10.2140     7.5450    -5.3350 ca         1 PYC      -0.154000
     11 C7           9.8730    10.1120   -10.4200 c          1 PYC       0.466800
     12 C8          12.1260     9.3370    -6.2510 ca         1 PYC      -0.108300
     13 C9           7.7900     8.9650   -10.8900 c2         1 PYC      -0.113200
     14 C10         11.3240     7.8550    -4.5410 ca         1 PYC      -0.035000
     15 C11          8.7270     9.8210   -11.2980 ce         1 PYC      -0.208200
     16 C12         12.2800     8.7510    -4.9980 ca         1 PYC      -0.105000
     17 H            7.1510     6.7450    -7.6360 h1         1 PYC       0.102033
     18 H1           7.5260     7.2610    -6.0090 h1         1 PYC       0.102033
     19 H2           8.4140     5.9420    -6.7340 h1         1 PYC       0.102033
     20 H3           6.9380     8.5720    -9.1140 hc         1 PYC       0.112700
     21 H4           8.0370     7.2960    -9.9320 hc         1 PYC       0.112700
     22 H5           9.5110     6.8780    -4.9800 ha         1 PYC       0.165000
     23 H6          12.8370    10.0040    -6.5910 ha         1 PYC       0.195000
     24 H7           6.9920     8.7710   -11.5150 ha         1 PYC       0.175000
     25 H8          11.4320     7.4160    -3.6130 ha         1 PYC       0.177000
     26 H9           8.6500    10.2760   -12.2210 ha         1 PYC       0.193000
     27 H10         13.0990     8.9810    -4.4130 ha         1 PYC       0.182000
@<TRIPOS>BOND
     1     1    11 2   
     2     2     4 1   
     3     2     5 2   
     4     2     8 1   
     5     3     6 ar  
     6     3     7 ar  
     7     4     6 ar  
     8     4     9 1   
     9     5     7 ar  
    10     5    10 ar  
    11     6    11 1   
    12     7    12 ar  
    13     8    17 1   
    14     8    18 1   
    15     8    19 1   
    16     9    13 1   
    17     9    20 1   
    18     9    21 1   
    19    10    14 ar  
    20    10    22 1   
    21    11    15 1   
    22    12    16 ar  
    23    12    23 1   
    24    13    15 2   
    25    13    24 1   
    26    14    16 ar  
    27    14    25 1   
    28    15    26 1   
    29    16    27 1   
@<TRIPOS>SUBSTRUCTURE
     1 PYC         1 TEMP              0 ****  ****    0 ROOT
