@<TRIPOS>MOLECULE
pyc_h.pdb
 27 29 0 0 0
SMALL
GASTEIGER

@<TRIPOS>ATOM
      1  O         10.7370   10.8960  -10.7870 O.2     1  PYC1       -0.2854
      2  N          8.9150    7.8300   -7.4470 N.ar    1  PYC1       -0.1938
      3  N         10.9540    9.6770   -8.3030 N.ar    1  PYC1       -0.2313
      4  C          8.8180    8.4540   -8.7000 C.ar    1  PYC1        0.2172
      5  C         10.0330    8.1220   -6.6080 C.ar    1  PYC1        0.2333
      6  C          9.9370    9.4090   -9.0650 C.ar    1  PYC1        0.1779
      7  C         11.0200    9.0350   -7.0570 C.ar    1  PYC1        0.1358
      8  C          7.9360    6.8810   -6.9210 C.3     1  PYC1        0.1413
      9  C          7.8440    8.3000   -9.6150 C.3     1  PYC1        0.0534
     10  C         10.2140    7.5450   -5.3350 C.ar    1  PYC1        0.0119
     11  C          9.8730   10.1120  -10.4200 C.2     1  PYC1        0.2100
     12  C         12.1260    9.3370   -6.2510 C.ar    1  PYC1       -0.0298
     13  C          7.7900    8.9650  -10.8900 C.2     1  PYC1       -0.0703
     14  C         11.3240    7.8550   -4.5410 C.ar    1  PYC1       -0.0554
     15  C          8.7270    9.8210  -11.2980 C.2     1  PYC1       -0.0160
     16  C         12.2800    8.7510   -4.9980 C.ar    1  PYC1       -0.0593
     17  H          7.1510    6.7450   -7.6360 H       1  PYC1        0.0993
     18  H          7.5260    7.2610   -6.0090 H       1  PYC1        0.0993
     19  H          8.4140    5.9420   -6.7340 H       1  PYC1        0.0993
     20  H          6.9380    8.5720   -9.1140 H       1  PYC1        0.0416
     21  H          8.0370    7.2960   -9.9320 H       1  PYC1        0.0416
     22  H          9.5110    6.8780   -4.9800 H       1  PYC1        0.0684
     23  H         12.8370   10.0040   -6.5910 H       1  PYC1        0.0641
     24  H          6.9920    8.7710  -11.5150 H       1  PYC1        0.0578
     25  H         11.4320    7.4160   -3.6130 H       1  PYC1        0.0620
     26  H          8.6500   10.2760  -12.2210 H       1  PYC1        0.0653
     27  H         13.0990    8.9810   -4.4130 H       1  PYC1        0.0618
@<TRIPOS>UNITY_ATOM_ATTR
2 1
charge 1
@<TRIPOS>BOND
     1     1    11    2
     2     2     4   ar
     3     2     5   ar
     4     2     8    1
     5     3     6   ar
     6     3     7   ar
     7     4     6   ar
     8     4     9    1
     9     5     7   ar
    10     5    10   ar
    11     6    11    1
    12     7    12   ar
    13     8    17    1
    14     8    18    1
    15     8    19    1
    16     9    13    1
    17     9    20    1
    18     9    21    1
    19    10    14   ar
    20    10    22    1
    21    11    15    1
    22    12    16   ar
    23    12    23    1
    24    13    15    2
    25    13    24    1
    26    14    16   ar
    27    14    25    1
    28    15    26    1
    29    16    27    1
