MODEL 1
REMARK VINA RESULT:      -7.4      0.000      0.000
REMARK  8 active torsions:
REMARK  status: ('A' for Active; 'I' for Inactive)
REMARK    1  A    between atoms: P_1  and  O3'_9 
REMARK    2  A    between atoms: PA_2  and  O5'_5 
REMARK    3  A    between atoms: PA_2  and  O3A_23 
REMARK    4  A    between atoms: PB_3  and  O3A_23 
REMARK    5  A    between atoms: C5'_4  and  O5'_5 
REMARK    6  A    between atoms: C5'_4  and  C4'_6 
REMARK    7  A    between atoms: C3'_8  and  O3'_9 
REMARK    8  A    between atoms: C1'_12  and  N9_31 
ROOT
HETATM    1  C4' PAP A 125      38.296   2.478  24.113  1.00 30.66     0.178 C 
HETATM    2  O4' PAP A 125      37.701   1.178  24.058  1.00 30.64    -0.331 OA
HETATM    3  C3' PAP A 125      39.812   2.288  23.835  1.00 32.01     0.192 C 
HETATM    4  C2' PAP A 125      39.811   0.939  23.127  1.00 31.03     0.231 C 
HETATM    5  O2' PAP A 125      41.114   0.320  23.194  1.00 29.14    -0.216 OA
HETATM    6  C1' PAP A 125      38.784   0.261  24.057  1.00 29.59     0.241 C 
ENDROOT
BRANCH   1   7
HETATM    7  C5' PAP A 125      37.599   3.290  23.060  1.00 29.07     0.187 C 
BRANCH   7   8
HETATM    8  O5' PAP A 125      36.326   3.596  23.597  1.00 30.13    -0.268 OA
BRANCH   8   9
HETATM    9  PA  PAP A 125      36.151   4.768  24.713  1.00 31.22     0.419 P 
HETATM   10  O1A PAP A 125      35.817   4.090  26.000  1.00 32.37    -0.624 OA
HETATM   11  O2A PAP A 125      37.345   5.655  24.668  1.00 32.57    -0.624 OA
BRANCH   9  12
HETATM   12  O3A PAP A 125      34.689   5.562  24.278  1.00 29.92    -0.173 OA
BRANCH  12  13
HETATM   13  PB  PAP A 125      34.112   7.102  24.208  1.00 26.94     0.431 P 
HETATM   14  O1B PAP A 125      32.688   7.001  24.586  1.00 24.20    -0.616 OA
HETATM   15  O2B PAP A 125      34.971   7.841  25.194  1.00 26.86    -0.616 OA
HETATM   16  O3B PAP A 125      34.329   7.528  22.806  1.00 28.16    -0.616 OA
ENDBRANCH  12  13
ENDBRANCH   9  12
ENDBRANCH   8   9
ENDBRANCH   7   8
ENDBRANCH   1   7
BRANCH   3  17
HETATM   17  O3' PAP A 125      40.532   2.224  25.099  1.00 36.20    -0.261 OA
BRANCH  17  18
HETATM   18  P   PAP A 125      41.679   3.418  25.515  1.00 39.68     0.423 P 
HETATM   19  O1  PAP A 125      40.961   4.647  25.095  1.00 40.50    -0.617 OA
HETATM   20  O2  PAP A 125      41.817   3.237  26.982  1.00 39.38    -0.617 OA
HETATM   21  O3  PAP A 125      42.928   3.076  24.767  1.00 40.59    -0.617 OA
ENDBRANCH  17  18
ENDBRANCH   3  17
BRANCH   6  22
HETATM   22  N9  PAP A 125      38.189  -1.008  23.580  1.00 29.22    -0.270 N 
HETATM   23  C4  PAP A 125      38.615  -2.354  23.734  1.00 29.28     0.170 A 
HETATM   24  N3  PAP A 125      39.732  -2.865  24.364  1.00 29.66    -0.205 NA
HETATM   25  C5  PAP A 125      37.650  -3.116  23.084  1.00 29.93     0.155 A 
HETATM   26  C2  PAP A 125      39.770  -4.214  24.252  1.00 28.29     0.202 A 
HETATM   27  N1  PAP A 125      38.928  -5.074  23.658  1.00 27.66    -0.202 NA
HETATM   28  C6  PAP A 125      37.821  -4.566  23.056  1.00 28.82     0.206 A 
HETATM   29  N6  PAP A 125      36.899  -5.394  22.526  1.00 26.39    -0.125 N 
HETATM   30  N7  PAP A 125      36.646  -2.256  22.534  1.00 30.19    -0.219 NA
HETATM   31  C8  PAP A 125      37.022  -1.055  22.859  1.00 28.80     0.182 A 
ENDBRANCH   6  22
TORSDOF 8
ENDMDL
