MODEL 1
REMARK VINA RESULT:      -6.1      0.000      0.000
REMARK  8 active torsions:
REMARK  status: ('A' for Active; 'I' for Inactive)
REMARK    1  A    between atoms: P_1  and  O3'_9 
REMARK    2  A    between atoms: PA_2  and  O5'_5 
REMARK    3  A    between atoms: PA_2  and  O3A_23 
REMARK    4  A    between atoms: PB_3  and  O3A_23 
REMARK    5  A    between atoms: C5'_4  and  O5'_5 
REMARK    6  A    between atoms: C5'_4  and  C4'_6 
REMARK    7  A    between atoms: C3'_8  and  O3'_9 
REMARK    8  A    between atoms: C1'_12  and  N9_31 
ROOT
HETATM    1  C4' PAP A 125      28.895  -3.298  40.760  1.00 30.66     0.178 C 
HETATM    2  O4' PAP A 125      29.892  -2.793  41.654  1.00 30.64    -0.331 OA
HETATM    3  C3' PAP A 125      29.088  -4.837  40.697  1.00 32.01     0.192 C 
HETATM    4  C2' PAP A 125      29.854  -5.086  41.990  1.00 31.03     0.231 C 
HETATM    5  O2' PAP A 125      30.565  -6.343  41.935  1.00 29.14    -0.216 OA
HETATM    6  C1' PAP A 125      30.792  -3.869  41.870  1.00 29.59     0.241 C 
ENDROOT
BRANCH   1   7
HETATM    7  C5' PAP A 125      27.575  -2.891  41.349  1.00 29.07     0.187 C 
BRANCH   7   8
HETATM    8  O5' PAP A 125      27.785  -1.604  41.898  1.00 30.13    -0.268 OA
BRANCH   8   9
HETATM    9  PA  PAP A 125      27.429  -0.265  41.044  1.00 31.22     0.419 P 
HETATM   10  O1A PAP A 125      28.713   0.468  40.840  1.00 32.37    -0.624 OA
HETATM   11  O2A PAP A 125      26.637  -0.656  39.846  1.00 32.57    -0.624 OA
BRANCH   9  12
HETATM   12  O3A PAP A 125      26.562   0.731  42.146  1.00 29.92    -0.173 OA
BRANCH  12  13
HETATM   13  PB  PAP A 125      26.847   1.513  43.566  1.00 26.94     0.431 P 
HETATM   14  O1B PAP A 125      25.521   1.965  44.034  1.00 24.20    -0.616 OA
HETATM   15  O2B PAP A 125      27.488   0.459  44.422  1.00 26.86    -0.616 OA
HETATM   16  O3B PAP A 125      27.765   2.622  43.214  1.00 28.16    -0.616 OA
ENDBRANCH  12  13
ENDBRANCH   9  12
ENDBRANCH   8   9
ENDBRANCH   7   8
ENDBRANCH   1   7
BRANCH   3  17
HETATM   17  O3' PAP A 125      29.892  -5.177  39.530  1.00 36.20    -0.261 OA
BRANCH  17  18
HETATM   18  P   PAP A 125      29.324  -6.296  38.373  1.00 39.68     0.423 P 
HETATM   19  O1  PAP A 125      30.603  -6.907  37.932  1.00 40.50    -0.617 OA
HETATM   20  O2  PAP A 125      28.448  -7.181  39.182  1.00 39.38    -0.617 OA
HETATM   21  O3  PAP A 125      28.569  -5.501  37.357  1.00 40.59    -0.617 OA
ENDBRANCH  17  18
ENDBRANCH   3  17
BRANCH   6  22
HETATM   22  N9  PAP A 125      31.541  -3.481  43.086  1.00 29.22    -0.270 N 
HETATM   23  C4  PAP A 125      32.912  -3.631  43.426  1.00 29.28     0.170 A 
HETATM   24  N3  PAP A 125      33.944  -4.209  42.714  1.00 29.66    -0.205 NA
HETATM   25  C5  PAP A 125      33.036  -3.068  44.691  1.00 29.93     0.155 A 
HETATM   26  C2  PAP A 125      35.098  -4.166  43.422  1.00 28.29     0.202 A 
HETATM   27  N1  PAP A 125      35.367  -3.668  44.639  1.00 27.66    -0.202 NA
HETATM   28  C6  PAP A 125      34.351  -3.084  45.327  1.00 28.82     0.206 A 
HETATM   29  N6  PAP A 125      34.589  -2.489  46.512  1.00 26.39    -0.125 N 
HETATM   30  N7  PAP A 125      31.763  -2.580  45.129  1.00 30.19    -0.219 NA
HETATM   31  C8  PAP A 125      30.949  -2.852  44.153  1.00 28.80     0.182 A 
ENDBRANCH   6  22
TORSDOF 8
ENDMDL
