MODEL 1
REMARK VINA RESULT:      -6.1      0.000      0.000
REMARK  8 active torsions:
REMARK  status: ('A' for Active; 'I' for Inactive)
REMARK    1  A    between atoms: P_1  and  O3'_9 
REMARK    2  A    between atoms: PA_2  and  O5'_5 
REMARK    3  A    between atoms: PA_2  and  O3A_23 
REMARK    4  A    between atoms: PB_3  and  O3A_23 
REMARK    5  A    between atoms: C5'_4  and  O5'_5 
REMARK    6  A    between atoms: C5'_4  and  C4'_6 
REMARK    7  A    between atoms: C3'_8  and  O3'_9 
REMARK    8  A    between atoms: C1'_12  and  N9_31 
ROOT
HETATM    1  C4' PAP A 125      41.010  -3.158  25.451  1.00 30.66     0.178 C 
HETATM    2  O4' PAP A 125      40.737  -3.797  26.702  1.00 30.64    -0.331 OA
HETATM    3  C3' PAP A 125      42.538  -3.291  25.205  1.00 32.01     0.192 C 
HETATM    4  C2' PAP A 125      42.877  -4.467  26.113  1.00 31.03     0.231 C 
HETATM    5  O2' PAP A 125      44.286  -4.482  26.433  1.00 29.14    -0.216 OA
HETATM    6  C1' PAP A 125      42.003  -4.020  27.302  1.00 29.59     0.241 C 
ENDROOT
BRANCH   1   7
HETATM    7  C5' PAP A 125      40.182  -3.887  24.432  1.00 29.07     0.187 C 
BRANCH   7   8
HETATM    8  O5' PAP A 125      38.843  -3.515  24.695  1.00 30.13    -0.268 OA
BRANCH   8   9
HETATM    9  PA  PAP A 125      37.950  -2.758  23.563  1.00 31.22     0.419 P 
HETATM   10  O1A PAP A 125      38.843  -2.535  22.389  1.00 32.37    -0.624 OA
HETATM   11  O2A PAP A 125      36.687  -3.519  23.360  1.00 32.57    -0.624 OA
BRANCH   9  12
HETATM   12  O3A PAP A 125      37.704  -1.177  24.194  1.00 29.92    -0.173 OA
BRANCH  12  13
HETATM   13  PB  PAP A 125      38.363   0.321  24.019  1.00 26.94     0.431 P 
HETATM   14  O1B PAP A 125      37.741   1.145  25.076  1.00 24.20    -0.616 OA
HETATM   15  O2B PAP A 125      39.834   0.078  24.199  1.00 26.86    -0.616 OA
HETATM   16  O3B PAP A 125      38.000   0.740  22.645  1.00 28.16    -0.616 OA
ENDBRANCH  12  13
ENDBRANCH   9  12
ENDBRANCH   8   9
ENDBRANCH   7   8
ENDBRANCH   1   7
BRANCH   3  17
HETATM   17  O3' PAP A 125      43.205  -2.073  25.642  1.00 36.20    -0.261 OA
BRANCH  17  18
HETATM   18  P   PAP A 125      43.569  -0.828  24.532  1.00 39.68     0.423 P 
HETATM   19  O1  PAP A 125      43.121   0.362  25.297  1.00 40.50    -0.617 OA
HETATM   20  O2  PAP A 125      45.039  -0.958  24.369  1.00 39.38    -0.617 OA
HETATM   21  O3  PAP A 125      42.815  -1.150  23.281  1.00 40.59    -0.617 OA
ENDBRANCH  17  18
ENDBRANCH   3  17
BRANCH   6  22
HETATM   22  N9  PAP A 125      41.739  -5.030  28.352  1.00 29.22    -0.270 N 
HETATM   23  C4  PAP A 125      41.359  -6.395  28.258  1.00 29.28     0.170 A 
HETATM   24  N3  PAP A 125      41.106  -7.172  27.145  1.00 29.66    -0.205 NA
HETATM   25  C5  PAP A 125      41.269  -6.837  29.574  1.00 29.93     0.155 A 
HETATM   26  C2  PAP A 125      40.743  -8.425  27.508  1.00 28.29     0.202 A 
HETATM   27  N1  PAP A 125      40.607  -8.988  28.718  1.00 27.66    -0.202 NA
HETATM   28  C6  PAP A 125      40.875  -8.224  29.810  1.00 28.82     0.206 A 
HETATM   29  N6  PAP A 125      40.843  -8.767  31.042  1.00 26.39    -0.125 N 
HETATM   30  N7  PAP A 125      41.585  -5.763  30.467  1.00 30.19    -0.219 NA
HETATM   31  C8  PAP A 125      41.845  -4.752  29.692  1.00 28.80     0.182 A 
ENDBRANCH   6  22
TORSDOF 8
ENDMDL
