MODEL 1
REMARK VINA RESULT:      -7.4      0.000      0.000
REMARK  8 active torsions:
REMARK  status: ('A' for Active; 'I' for Inactive)
REMARK    1  A    between atoms: P_1  and  O3'_9 
REMARK    2  A    between atoms: PA_2  and  O5'_5 
REMARK    3  A    between atoms: PA_2  and  O3A_23 
REMARK    4  A    between atoms: PB_3  and  O3A_23 
REMARK    5  A    between atoms: C5'_4  and  O5'_5 
REMARK    6  A    between atoms: C5'_4  and  C4'_6 
REMARK    7  A    between atoms: C3'_8  and  O3'_9 
REMARK    8  A    between atoms: C1'_12  and  N9_31 
ROOT
HETATM    1  C4' PAP A 125      38.138   2.350  24.073  1.00 30.66     0.178 C 
HETATM    2  O4' PAP A 125      37.577   1.035  24.012  1.00 30.64    -0.331 OA
HETATM    3  C3' PAP A 125      39.667   2.194  23.853  1.00 32.01     0.192 C 
HETATM    4  C2' PAP A 125      39.724   0.836  23.163  1.00 31.03     0.231 C 
HETATM    5  O2' PAP A 125      41.039   0.250  23.286  1.00 29.14    -0.216 OA
HETATM    6  C1' PAP A 125      38.680   0.145  24.062  1.00 29.59     0.241 C 
ENDROOT
BRANCH   1   7
HETATM    7  C5' PAP A 125      37.461   3.132  22.984  1.00 29.07     0.187 C 
BRANCH   7   8
HETATM    8  O5' PAP A 125      36.196   3.490  23.505  1.00 30.13    -0.268 OA
BRANCH   8   9
HETATM    9  PA  PAP A 125      36.049   4.699  24.585  1.00 31.22     0.419 P 
HETATM   10  O1A PAP A 125      35.599   4.079  25.866  1.00 32.37    -0.624 OA
HETATM   11  O2A PAP A 125      37.306   5.496  24.587  1.00 32.57    -0.624 OA
BRANCH   9  12
HETATM   12  O3A PAP A 125      34.674   5.586  24.056  1.00 29.92    -0.173 OA
BRANCH  12  13
HETATM   13  PB  PAP A 125      34.077   7.112  24.204  1.00 26.94     0.431 P 
HETATM   14  O1B PAP A 125      32.688   6.942  24.678  1.00 24.20    -0.616 OA
HETATM   15  O2B PAP A 125      35.003   7.754  25.197  1.00 26.86    -0.616 OA
HETATM   16  O3B PAP A 125      34.177   7.696  22.846  1.00 28.16    -0.616 OA
ENDBRANCH  12  13
ENDBRANCH   9  12
ENDBRANCH   8   9
ENDBRANCH   7   8
ENDBRANCH   1   7
BRANCH   3  17
HETATM   17  O3' PAP A 125      40.340   2.161  25.144  1.00 36.20    -0.261 OA
BRANCH  17  18
HETATM   18  P   PAP A 125      41.527   3.323  25.542  1.00 39.68     0.423 P 
HETATM   19  O1  PAP A 125      41.718   3.037  26.985  1.00 40.50    -0.617 OA
HETATM   20  O2  PAP A 125      42.662   2.938  24.666  1.00 39.38    -0.617 OA
HETATM   21  O3  PAP A 125      40.944   4.654  25.187  1.00 40.59    -0.617 OA
ENDBRANCH  17  18
ENDBRANCH   3  17
BRANCH   6  22
HETATM   22  N9  PAP A 125      38.134  -1.144  23.580  1.00 29.22    -0.270 N 
HETATM   23  C4  PAP A 125      38.601  -2.475  23.743  1.00 29.28     0.170 A 
HETATM   24  N3  PAP A 125      39.725  -2.948  24.391  1.00 29.66    -0.205 NA
HETATM   25  C5  PAP A 125      37.672  -3.269  23.080  1.00 29.93     0.155 A 
HETATM   26  C2  PAP A 125      39.809  -4.295  24.282  1.00 28.29     0.202 A 
HETATM   27  N1  PAP A 125      39.004  -5.183  23.678  1.00 27.66    -0.202 NA
HETATM   28  C6  PAP A 125      37.890  -4.713  23.058  1.00 28.82     0.206 A 
HETATM   29  N6  PAP A 125      37.003  -5.571  22.517  1.00 26.39    -0.125 N 
HETATM   30  N7  PAP A 125      36.648  -2.444  22.514  1.00 30.19    -0.219 NA
HETATM   31  C8  PAP A 125      36.980  -1.230  22.842  1.00 28.80     0.182 A 
ENDBRANCH   6  22
TORSDOF 8
ENDMDL
