MODEL 1
REMARK VINA RESULT:      -7.5      0.000      0.000
REMARK  8 active torsions:
REMARK  status: ('A' for Active; 'I' for Inactive)
REMARK    1  A    between atoms: P_1  and  O3'_9 
REMARK    2  A    between atoms: PA_2  and  O5'_5 
REMARK    3  A    between atoms: PA_2  and  O3A_23 
REMARK    4  A    between atoms: PB_3  and  O3A_23 
REMARK    5  A    between atoms: C5'_4  and  O5'_5 
REMARK    6  A    between atoms: C5'_4  and  C4'_6 
REMARK    7  A    between atoms: C3'_8  and  O3'_9 
REMARK    8  A    between atoms: C1'_12  and  N9_31 
ROOT
HETATM    1  C4' PAP A 125      38.019   2.467  23.979  1.00 30.66     0.178 C 
HETATM    2  O4' PAP A 125      37.465   1.148  23.934  1.00 30.64    -0.331 OA
HETATM    3  C3' PAP A 125      39.556   2.311  23.816  1.00 32.01     0.192 C 
HETATM    4  C2' PAP A 125      39.641   0.935  23.165  1.00 31.03     0.231 C 
HETATM    5  O2' PAP A 125      40.952   0.357  23.349  1.00 29.14    -0.216 OA
HETATM    6  C1' PAP A 125      38.568   0.264  24.047  1.00 29.59     0.241 C 
ENDROOT
BRANCH   1   7
HETATM    7  C5' PAP A 125      37.378   3.217  22.847  1.00 29.07     0.187 C 
BRANCH   7   8
HETATM    8  O5' PAP A 125      36.167   3.729  23.368  1.00 30.13    -0.268 OA
BRANCH   8   9
HETATM    9  PA  PAP A 125      36.154   5.083  24.272  1.00 31.22     0.419 P 
HETATM   10  O1A PAP A 125      35.717   4.682  25.641  1.00 32.37    -0.624 OA
HETATM   11  O2A PAP A 125      37.464   5.774  24.120  1.00 32.57    -0.624 OA
BRANCH   9  12
HETATM   12  O3A PAP A 125      34.825   5.991  23.668  1.00 29.92    -0.173 OA
BRANCH  12  13
HETATM   13  PB  PAP A 125      33.952   7.315  24.109  1.00 26.94     0.431 P 
HETATM   14  O1B PAP A 125      32.694   6.783  24.672  1.00 24.20    -0.616 OA
HETATM   15  O2B PAP A 125      34.842   8.003  25.105  1.00 26.86    -0.616 OA
HETATM   16  O3B PAP A 125      33.767   8.085  22.857  1.00 28.16    -0.616 OA
ENDBRANCH  12  13
ENDBRANCH   9  12
ENDBRANCH   8   9
ENDBRANCH   7   8
ENDBRANCH   1   7
BRANCH   3  17
HETATM   17  O3' PAP A 125      40.184   2.316  25.130  1.00 36.20    -0.261 OA
BRANCH  17  18
HETATM   18  P   PAP A 125      41.482   3.370  25.475  1.00 39.68     0.423 P 
HETATM   19  O1  PAP A 125      40.865   4.680  25.152  1.00 40.50    -0.617 OA
HETATM   20  O2  PAP A 125      41.723   3.125  26.919  1.00 39.38    -0.617 OA
HETATM   21  O3  PAP A 125      42.620   2.928  24.613  1.00 40.59    -0.617 OA
ENDBRANCH  17  18
ENDBRANCH   3  17
BRANCH   6  22
HETATM   22  N9  PAP A 125      38.042  -1.039  23.581  1.00 29.22    -0.270 N 
HETATM   23  C4  PAP A 125      38.539  -2.359  23.747  1.00 29.28     0.170 A 
HETATM   24  N3  PAP A 125      39.682  -2.804  24.382  1.00 29.66    -0.205 NA
HETATM   25  C5  PAP A 125      37.618  -3.177  23.103  1.00 29.93     0.155 A 
HETATM   26  C2  PAP A 125      39.792  -4.150  24.282  1.00 28.29     0.202 A 
HETATM   27  N1  PAP A 125      38.998  -5.058  23.696  1.00 27.66    -0.202 NA
HETATM   28  C6  PAP A 125      37.866  -4.616  23.088  1.00 28.82     0.206 A 
HETATM   29  N6  PAP A 125      36.990  -5.496  22.565  1.00 26.39    -0.125 N 
HETATM   30  N7  PAP A 125      36.569  -2.377  22.545  1.00 30.19    -0.219 NA
HETATM   31  C8  PAP A 125      36.880  -1.155  22.860  1.00 28.80     0.182 A 
ENDBRANCH   6  22
TORSDOF 8
ENDMDL
