MODEL 1
REMARK VINA RESULT:      -5.6      0.000      0.000
REMARK  8 active torsions:
REMARK  status: ('A' for Active; 'I' for Inactive)
REMARK    1  A    between atoms: P_1  and  O3'_9 
REMARK    2  A    between atoms: PA_2  and  O5'_5 
REMARK    3  A    between atoms: PA_2  and  O3A_23 
REMARK    4  A    between atoms: PB_3  and  O3A_23 
REMARK    5  A    between atoms: C5'_4  and  O5'_5 
REMARK    6  A    between atoms: C5'_4  and  C4'_6 
REMARK    7  A    between atoms: C3'_8  and  O3'_9 
REMARK    8  A    between atoms: C1'_12  and  N9_31 
ROOT
HETATM    1  C4' PAP A 125      21.978  -8.650  13.065  1.00 30.66     0.178 C 
HETATM    2  O4' PAP A 125      21.699  -8.475  14.458  1.00 30.64    -0.331 OA
HETATM    3  C3' PAP A 125      21.316  -9.990  12.642  1.00 32.01     0.192 C 
HETATM    4  C2' PAP A 125      20.279 -10.162  13.744  1.00 31.03     0.231 C 
HETATM    5  O2' PAP A 125      19.867 -11.542  13.854  1.00 29.14    -0.216 OA
HETATM    6  C1' PAP A 125      21.191  -9.721  14.906  1.00 29.59     0.241 C 
ENDROOT
BRANCH   1   7
HETATM    7  C5' PAP A 125      21.385  -7.454  12.377  1.00 29.07     0.187 C 
BRANCH   7   8
HETATM    8  O5' PAP A 125      22.448  -6.870  11.649  1.00 30.13    -0.268 OA
BRANCH   8   9
HETATM    9  PA  PAP A 125      22.455  -6.891  10.021  1.00 31.22     0.419 P 
HETATM   10  O1A PAP A 125      23.180  -8.130   9.611  1.00 32.37    -0.624 OA
HETATM   11  O2A PAP A 125      21.063  -6.690   9.533  1.00 32.57    -0.624 OA
BRANCH   9  12
HETATM   12  O3A PAP A 125      23.529  -5.624   9.578  1.00 29.92    -0.173 OA
BRANCH  12  13
HETATM   13  PB  PAP A 125      23.959  -4.812   8.212  1.00 26.94     0.431 P 
HETATM   14  O1B PAP A 125      23.571  -3.408   8.455  1.00 24.20    -0.616 OA
HETATM   15  O2B PAP A 125      25.440  -5.046   8.120  1.00 26.86    -0.616 OA
HETATM   16  O3B PAP A 125      23.194  -5.463   7.123  1.00 28.16    -0.616 OA
ENDBRANCH  12  13
ENDBRANCH   9  12
ENDBRANCH   8   9
ENDBRANCH   7   8
ENDBRANCH   1   7
BRANCH   3  17
HETATM   17  O3' PAP A 125      22.311 -11.053  12.678  1.00 36.20    -0.261 OA
BRANCH  17  18
HETATM   18  P   PAP A 125      22.554 -12.070  11.328  1.00 39.68     0.423 P 
HETATM   19  O1  PAP A 125      21.763 -13.258  11.734  1.00 40.50    -0.617 OA
HETATM   20  O2  PAP A 125      21.975 -11.275  10.216  1.00 39.38    -0.617 OA
HETATM   21  O3  PAP A 125      24.033 -12.252  11.204  1.00 40.59    -0.617 OA
ENDBRANCH  17  18
ENDBRANCH   3  17
BRANCH   6  22
HETATM   22  N9  PAP A 125      20.527  -9.405  16.192  1.00 29.22    -0.270 N 
HETATM   23  C4  PAP A 125      19.528  -8.449  16.516  1.00 29.28     0.170 A 
HETATM   24  N3  PAP A 125      18.900  -7.516  15.716  1.00 29.66    -0.205 NA
HETATM   25  C5  PAP A 125      19.290  -8.622  17.875  1.00 29.93     0.155 A 
HETATM   26  C2  PAP A 125      18.024  -6.778  16.439  1.00 28.29     0.202 A 
HETATM   27  N1  PAP A 125      17.695  -6.823  17.739  1.00 27.66    -0.202 NA
HETATM   28  C6  PAP A 125      18.304  -7.756  18.517  1.00 28.82     0.206 A 
HETATM   29  N6  PAP A 125      17.942  -7.903  19.807  1.00 26.39    -0.125 N 
HETATM   30  N7  PAP A 125      20.128  -9.665  18.384  1.00 30.19    -0.219 NA
HETATM   31  C8  PAP A 125      20.815 -10.071  17.357  1.00 28.80     0.182 A 
ENDBRANCH   6  22
TORSDOF 8
ENDMDL
