MODEL 1
REMARK VINA RESULT:      -5.5      0.000      0.000
REMARK  8 active torsions:
REMARK  status: ('A' for Active; 'I' for Inactive)
REMARK    1  A    between atoms: P_1  and  O3'_9 
REMARK    2  A    between atoms: PA_2  and  O5'_5 
REMARK    3  A    between atoms: PA_2  and  O3A_23 
REMARK    4  A    between atoms: PB_3  and  O3A_23 
REMARK    5  A    between atoms: C5'_4  and  O5'_5 
REMARK    6  A    between atoms: C5'_4  and  C4'_6 
REMARK    7  A    between atoms: C3'_8  and  O3'_9 
REMARK    8  A    between atoms: C1'_12  and  N9_31 
ROOT
HETATM    1  C4' PAP A 125      41.200   2.688  44.083  1.00 30.66     0.178 C 
HETATM    2  O4' PAP A 125      41.831   3.952  43.853  1.00 30.64    -0.331 OA
HETATM    3  C3' PAP A 125      42.081   1.930  45.113  1.00 32.01     0.192 C 
HETATM    4  C2' PAP A 125      42.844   3.086  45.749  1.00 31.03     0.231 C 
HETATM    5  O2' PAP A 125      44.054   2.618  46.384  1.00 29.14    -0.216 OA
HETATM    6  C1' PAP A 125      43.119   3.849  44.439  1.00 29.59     0.241 C 
ENDROOT
BRANCH   1   7
HETATM    7  C5' PAP A 125      39.827   3.007  44.600  1.00 29.07     0.187 C 
BRANCH   7   8
HETATM    8  O5' PAP A 125      39.711   4.415  44.528  1.00 30.13    -0.268 OA
BRANCH   8   9
HETATM    9  PA  PAP A 125      39.204   5.278  45.812  1.00 31.22     0.419 P 
HETATM   10  O1A PAP A 125      37.714   5.191  45.827  1.00 32.37    -0.624 OA
HETATM   11  O2A PAP A 125      39.952   4.828  47.018  1.00 32.57    -0.624 OA
BRANCH   9  12
HETATM   12  O3A PAP A 125      39.513   6.913  45.382  1.00 29.92    -0.173 OA
BRANCH  12  13
HETATM   13  PB  PAP A 125      39.041   7.978  44.219  1.00 26.94     0.431 P 
HETATM   14  O1B PAP A 125      37.566   8.008  44.295  1.00 24.20    -0.616 OA
HETATM   15  O2B PAP A 125      39.715   9.258  44.624  1.00 26.86    -0.616 OA
HETATM   16  O3B PAP A 125      39.562   7.415  42.951  1.00 28.16    -0.616 OA
ENDBRANCH  12  13
ENDBRANCH   9  12
ENDBRANCH   8   9
ENDBRANCH   7   8
ENDBRANCH   1   7
BRANCH   3  17
HETATM   17  O3' PAP A 125      42.979   1.026  44.408  1.00 36.20    -0.261 OA
BRANCH  17  18
HETATM   18  P   PAP A 125      42.439  -0.503  43.874  1.00 39.68     0.423 P 
HETATM   19  O1  PAP A 125      42.365  -0.272  42.410  1.00 40.50    -0.617 OA
HETATM   20  O2  PAP A 125      43.532  -1.405  44.316  1.00 39.38    -0.617 OA
HETATM   21  O3  PAP A 125      41.149  -0.762  44.584  1.00 40.59    -0.617 OA
ENDBRANCH  17  18
ENDBRANCH   3  17
BRANCH   6  22
HETATM   22  N9  PAP A 125      43.576   5.252  44.568  1.00 29.22    -0.270 N 
HETATM   23  C4  PAP A 125      44.876   5.799  44.732  1.00 29.28     0.170 A 
HETATM   24  N3  PAP A 125      46.098   5.165  44.840  1.00 29.66    -0.205 NA
HETATM   25  C5  PAP A 125      44.687   7.175  44.781  1.00 29.93     0.155 A 
HETATM   26  C2  PAP A 125      47.092   6.068  45.015  1.00 28.29     0.202 A 
HETATM   27  N1  PAP A 125      47.064   7.407  45.088  1.00 27.66    -0.202 NA
HETATM   28  C6  PAP A 125      45.860   8.026  44.962  1.00 28.82     0.206 A 
HETATM   29  N6  PAP A 125      45.790   9.371  44.937  1.00 26.39    -0.125 N 
HETATM   30  N7  PAP A 125      43.293   7.476  44.652  1.00 30.19    -0.219 NA
HETATM   31  C8  PAP A 125      42.713   6.319  44.533  1.00 28.80     0.182 A 
ENDBRANCH   6  22
TORSDOF 8
ENDMDL
