MODEL 1
REMARK VINA RESULT:      -7.4      0.000      0.000
REMARK  8 active torsions:
REMARK  status: ('A' for Active; 'I' for Inactive)
REMARK    1  A    between atoms: P_1  and  O3'_9 
REMARK    2  A    between atoms: PA_2  and  O5'_5 
REMARK    3  A    between atoms: PA_2  and  O3A_23 
REMARK    4  A    between atoms: PB_3  and  O3A_23 
REMARK    5  A    between atoms: C5'_4  and  O5'_5 
REMARK    6  A    between atoms: C5'_4  and  C4'_6 
REMARK    7  A    between atoms: C3'_8  and  O3'_9 
REMARK    8  A    between atoms: C1'_12  and  N9_31 
ROOT
HETATM    1  C4' PAP A 125      38.125   2.554  24.049  1.00 30.66     0.178 C 
HETATM    2  O4' PAP A 125      37.557   1.241  24.011  1.00 30.64    -0.331 OA
HETATM    3  C3' PAP A 125      39.650   2.388  23.803  1.00 32.01     0.192 C 
HETATM    4  C2' PAP A 125      39.688   1.024  23.124  1.00 31.03     0.231 C 
HETATM    5  O2' PAP A 125      41.002   0.433  23.228  1.00 29.14    -0.216 OA
HETATM    6  C1' PAP A 125      38.657   0.346  24.049  1.00 29.59     0.241 C 
ENDROOT
BRANCH   1   7
HETATM    7  C5' PAP A 125      37.432   3.329  22.966  1.00 29.07     0.187 C 
BRANCH   7   8
HETATM    8  O5' PAP A 125      36.247   3.827  23.555  1.00 30.13    -0.268 OA
BRANCH   8   9
HETATM    9  PA  PAP A 125      36.255   5.221  24.396  1.00 31.22     0.419 P 
HETATM   10  O1A PAP A 125      35.687   4.915  25.742  1.00 32.37    -0.624 OA
HETATM   11  O2A PAP A 125      37.615   5.820  24.320  1.00 32.57    -0.624 OA
BRANCH   9  12
HETATM   12  O3A PAP A 125      35.039   6.182  23.650  1.00 29.92    -0.173 OA
BRANCH  12  13
HETATM   13  PB  PAP A 125      34.008   7.392  24.077  1.00 26.94     0.431 P 
HETATM   14  O1B PAP A 125      32.799   6.711  24.584  1.00 24.20    -0.616 OA
HETATM   15  O2B PAP A 125      34.779   8.156  25.115  1.00 26.86    -0.616 OA
HETATM   16  O3B PAP A 125      33.782   8.159  22.829  1.00 28.16    -0.616 OA
ENDBRANCH  12  13
ENDBRANCH   9  12
ENDBRANCH   8   9
ENDBRANCH   7   8
ENDBRANCH   1   7
BRANCH   3  17
HETATM   17  O3' PAP A 125      40.347   2.364  25.081  1.00 36.20    -0.261 OA
BRANCH  17  18
HETATM   18  P   PAP A 125      41.545   3.524  25.446  1.00 39.68     0.423 P 
HETATM   19  O1  PAP A 125      41.731   3.280  26.898  1.00 40.50    -0.617 OA
HETATM   20  O2  PAP A 125      42.678   3.101  24.584  1.00 39.38    -0.617 OA
HETATM   21  O3  PAP A 125      40.978   4.850  25.051  1.00 40.59    -0.617 OA
ENDBRANCH  17  18
ENDBRANCH   3  17
BRANCH   6  22
HETATM   22  N9  PAP A 125      38.096  -0.945  23.589  1.00 29.22    -0.270 N 
HETATM   23  C4  PAP A 125      38.562  -2.276  23.753  1.00 29.28     0.170 A 
HETATM   24  N3  PAP A 125      39.699  -2.748  24.378  1.00 29.66    -0.205 NA
HETATM   25  C5  PAP A 125      37.616  -3.072  23.117  1.00 29.93     0.155 A 
HETATM   26  C2  PAP A 125      39.776  -4.096  24.279  1.00 28.29     0.202 A 
HETATM   27  N1  PAP A 125      38.955  -4.986  23.700  1.00 27.66    -0.202 NA
HETATM   28  C6  PAP A 125      37.828  -4.517  23.101  1.00 28.82     0.206 A 
HETATM   29  N6  PAP A 125      36.927  -5.376  22.587  1.00 26.39    -0.125 N 
HETATM   30  N7  PAP A 125      36.582  -2.248  22.568  1.00 30.19    -0.219 NA
HETATM   31  C8  PAP A 125      36.925  -1.033  22.879  1.00 28.80     0.182 A 
ENDBRANCH   6  22
TORSDOF 8
ENDMDL
