MODEL 1
REMARK VINA RESULT:      -5.8      0.000      0.000
REMARK  8 active torsions:
REMARK  status: ('A' for Active; 'I' for Inactive)
REMARK    1  A    between atoms: P_1  and  O3'_9 
REMARK    2  A    between atoms: PA_2  and  O5'_5 
REMARK    3  A    between atoms: PA_2  and  O3A_23 
REMARK    4  A    between atoms: PB_3  and  O3A_23 
REMARK    5  A    between atoms: C5'_4  and  O5'_5 
REMARK    6  A    between atoms: C5'_4  and  C4'_6 
REMARK    7  A    between atoms: C3'_8  and  O3'_9 
REMARK    8  A    between atoms: C1'_12  and  N9_31 
ROOT
HETATM    1  C4' PAP A 125      43.993  -6.779  42.195  1.00 30.66     0.178 C 
HETATM    2  O4' PAP A 125      43.168  -5.613  42.282  1.00 30.64    -0.331 OA
HETATM    3  C3' PAP A 125      45.335  -6.430  42.895  1.00 32.01     0.192 C 
HETATM    4  C2' PAP A 125      44.910  -5.257  43.769  1.00 31.03     0.231 C 
HETATM    5  O2' PAP A 125      46.051  -4.455  44.148  1.00 29.14    -0.216 OA
HETATM    6  C1' PAP A 125      44.026  -4.567  42.711  1.00 29.59     0.241 C 
ENDROOT
BRANCH   1   7
HETATM    7  C5' PAP A 125      43.231  -7.870  42.889  1.00 29.07     0.187 C 
BRANCH   7   8
HETATM    8  O5' PAP A 125      41.933  -7.842  42.329  1.00 30.13    -0.268 OA
BRANCH   8   9
HETATM    9  PA  PAP A 125      41.458  -8.979  41.264  1.00 31.22     0.419 P 
HETATM   10  O1A PAP A 125      42.676  -9.760  40.899  1.00 32.37    -0.624 OA
HETATM   11  O2A PAP A 125      40.291  -9.709  41.830  1.00 32.57    -0.624 OA
BRANCH   9  12
HETATM   12  O3A PAP A 125      41.091  -8.102  39.832  1.00 29.92    -0.173 OA
BRANCH  12  13
HETATM   13  PB  PAP A 125      41.665  -6.785  39.028  1.00 26.94     0.431 P 
HETATM   14  O1B PAP A 125      40.914  -6.748  37.756  1.00 24.20    -0.616 OA
HETATM   15  O2B PAP A 125      41.368  -5.649  39.964  1.00 26.86    -0.616 OA
HETATM   16  O3B PAP A 125      43.114  -7.043  38.858  1.00 28.16    -0.616 OA
ENDBRANCH  12  13
ENDBRANCH   9  12
ENDBRANCH   8   9
ENDBRANCH   7   8
ENDBRANCH   1   7
BRANCH   3  17
HETATM   17  O3' PAP A 125      46.310  -6.020  41.893  1.00 36.20    -0.261 OA
BRANCH  17  18
HETATM   18  P   PAP A 125      47.176  -7.180  40.989  1.00 39.68     0.423 P 
HETATM   19  O1  PAP A 125      47.036  -8.371  41.864  1.00 40.50    -0.617 OA
HETATM   20  O2  PAP A 125      46.411  -7.237  39.718  1.00 39.38    -0.617 OA
HETATM   21  O3  PAP A 125      48.555  -6.629  40.813  1.00 40.59    -0.617 OA
ENDBRANCH  17  18
ENDBRANCH   3  17
BRANCH   6  22
HETATM   22  N9  PAP A 125      43.106  -3.513  43.194  1.00 29.22    -0.270 N 
HETATM   23  C4  PAP A 125      42.307  -2.575  42.488  1.00 29.28     0.170 A 
HETATM   24  N3  PAP A 125      42.178  -2.366  41.129  1.00 29.66    -0.205 NA
HETATM   25  C5  PAP A 125      41.646  -1.849  43.471  1.00 29.93     0.155 A 
HETATM   26  C2  PAP A 125      41.325  -1.343  40.882  1.00 28.29     0.202 A 
HETATM   27  N1  PAP A 125      40.627  -0.557  41.714  1.00 27.66    -0.202 NA
HETATM   28  C6  PAP A 125      40.745  -0.780  43.050  1.00 28.82     0.206 A 
HETATM   29  N6  PAP A 125      39.995  -0.078  43.922  1.00 26.39    -0.125 N 
HETATM   30  N7  PAP A 125      42.030  -2.327  44.765  1.00 30.19    -0.219 NA
HETATM   31  C8  PAP A 125      42.874  -3.287  44.528  1.00 28.80     0.182 A 
ENDBRANCH   6  22
TORSDOF 8
ENDMDL
