@<TRIPOS>MOLECULE
*****
 58 61 0 0 0
SMALL
GASTEIGER

@<TRIPOS>ATOM
      1  C1        28.1316  -53.5818   -7.0086 C.3     1  LEV1       -0.0473
      2  N1        28.6250  -56.0053   -7.1043 N.3     1  LEV1       -0.2912
      3  O1        27.4640  -55.0842   -9.6017 O.3     1  LEV1       -0.3718
      4  C2        27.5257  -54.9956   -7.1259 C.3     1  LEV1        0.0314
      5  N2        28.7101  -55.7152  -12.1224 N.3     1  LEV1       -0.2920
      6  O2        31.4092  -59.1800   -7.0913 O.3     1  LEV1       -0.3910
      7  C3        26.6473  -55.1126   -8.3985 C.3     1  LEV1        0.0635
      8  N3        29.0537  -54.3658  -14.6788 N.3     1  LEV1       -0.3029
      9  O3        31.0287  -58.7983   -3.8643 O.3     1  LEV1       -0.3668
     10  C4        28.7384  -55.7957   -9.5810 C.3     1  LEV1        0.0927
     11  O4        29.2385  -59.9345   -4.8777 O.3     1  LEV1       -0.3668
     12  C5        28.8016  -56.7628   -8.3716 C.3     1  LEV1        0.0438
     13  C6        28.5969  -56.8942   -5.9169 C.3     1  LEV1        0.0094
     14  C7        29.8961  -57.7303   -5.7985 C.3     1  LEV1        0.0487
     15  C8        30.1537  -58.4979   -7.1321 C.3     1  LEV1        0.0682
     16  C9        30.1435  -57.5318   -8.3448 C.3     1  LEV1        0.0062
     17  C10       30.3367  -58.2966   -9.6816 C.3     1  LEV1       -0.0135
     18  C11       30.2658  -57.3485  -10.8988 C.3     1  LEV1        0.1192
     19  C12       28.9172  -56.5726  -10.9123 C.3     1  LEV1        0.0693
     20  C13       29.5429  -54.4843  -12.2232 C.3     1  LEV1        0.0122
     21  C14       29.0669  -53.6070  -13.4033 C.3     1  LEV1        0.0114
     22  C15       28.2162  -55.5856  -14.5661 C.3     1  LEV1        0.0114
     23  C16       28.6749  -56.4835  -13.3948 C.3     1  LEV1        0.0122
     24  C17       30.4076  -54.6252  -15.2220 C.3     1  LEV1       -0.0127
     25  C18       29.7754  -58.6506   -4.5445 C.3     1  LEV1        0.1595
     26  F1        31.3241  -56.5158  -10.8649 F       1  LEV1       -0.2438
     27  H01       28.7920  -53.3640   -7.8512 H       1  LEV1        0.0245
     28  H02       27.3420  -52.8274   -6.9880 H       1  LEV1        0.0245
     29  H03       28.7119  -53.4915   -6.0875 H       1  LEV1        0.0245
     30  H04       26.8736  -55.1463   -6.2605 H       1  LEV1        0.0482
     31  H05       31.5000  -59.6500   -7.9400 H       1  LEV1        0.2098
     32  H06       26.1015  -56.0599   -8.3761 H       1  LEV1        0.0575
     33  H07       25.9219  -54.2957   -8.4439 H       1  LEV1        0.0575
     34  H08       31.4210  -59.6750   -4.0340 H       1  LEV1        0.2125
     35  H09       29.5375  -55.0570   -9.4730 H       1  LEV1        0.0628
     36  H10       29.2480  -60.5020   -4.0910 H       1  LEV1        0.2125
     37  H11       27.9879  -57.4886   -8.4690 H       1  LEV1        0.0492
     38  H12       27.7346  -57.5642   -5.9841 H       1  LEV1        0.0432
     39  H13       28.4922  -56.2846   -5.0147 H       1  LEV1        0.0432
     40  H14       30.7230  -57.0321   -5.6386 H       1  LEV1        0.0387
     41  H15       29.3586  -59.2344   -7.2783 H       1  LEV1        0.0601
     42  H16       30.9606  -56.8135   -8.2283 H       1  LEV1        0.0343
     43  H17       29.5672  -59.0665   -9.7805 H       1  LEV1        0.0297
     44  H18       31.3039  -58.8044   -9.6897 H       1  LEV1        0.0297
     45  H19       30.3606  -57.9466  -11.8079 H       1  LEV1        0.0668
     46  H20       28.1240  -57.3257  -10.9355 H       1  LEV1        0.0517
     47  H21       30.5927  -54.7465  -12.3709 H       1  LEV1        0.0439
     48  H22       29.4586  -53.8939  -11.3081 H       1  LEV1        0.0439
     49  H23       28.0523  -53.2585  -13.1893 H       1  LEV1        0.0439
     50  H24       29.7134  -52.7300  -13.4960 H       1  LEV1        0.0439
     51  H25       28.2515  -56.1509  -15.5016 H       1  LEV1        0.0439
     52  H26       27.1791  -55.2862  -14.3898 H       1  LEV1        0.0439
     53  H27       27.9776  -57.3204  -13.3002 H       1  LEV1        0.0439
     54  H28       29.6674  -56.8835  -13.6172 H       1  LEV1        0.0439
     55  H29       30.9832  -55.2657  -14.5490 H       1  LEV1        0.0391
     56  H30       30.3285  -55.1158  -16.1958 H       1  LEV1        0.0391
     57  H31       30.9412  -53.6796  -15.3511 H       1  LEV1        0.0391
     58  H32       29.0934  -58.1941   -3.8108 H       1  LEV1        0.0909
@<TRIPOS>BOND
     1    56    24    1
     2    51    22    1
     3    57    24    1
     4    24     8    1
     5    24    55    1
     6     8    22    1
     7     8    21    1
     8    22    52    1
     9    22    23    1
    10    54    23    1
    11    23    53    1
    12    23     5    1
    13    50    21    1
    14    21    49    1
    15    21    20    1
    16    47    20    1
    17     5    20    1
    18     5    19    1
    19    20    48    1
    20    45    18    1
    21    26    18    1
    22    18    19    1
    23    18    17    1
    24    46    19    1
    25    19    10    1
    26    43    17    1
    27    44    17    1
    28    17    16    1
    29     3    10    1
    30     3     7    1
    31    10    35    1
    32    10    12    1
    33    32     7    1
    34    33     7    1
    35     7     4    1
    36    37    12    1
    37    16    12    1
    38    16    42    1
    39    16    15    1
    40    12     2    1
    41    31     6    1
    42    27     1    1
    43    28     1    1
    44    41    15    1
    45     4     2    1
    46     4     1    1
    47     4    30    1
    48     2    13    1
    49    15     6    1
    50    15    14    1
    51     1    29    1
    52    38    13    1
    53    13    14    1
    54    13    39    1
    55    14    40    1
    56    14    25    1
    57    11    25    1
    58    11    36    1
    59    25     9    1
    60    25    58    1
    61    34     9    1
