@<TRIPOS>MOLECULE
*****
   58    61     1     0     0
SMALL
bcc


@<TRIPOS>ATOM
      1 C1          28.1320   -53.5820    -7.0090 c3         1 LEV      -0.085100
      2 N1          28.6250   -56.0050    -7.1040 n3         1 LEV      -0.722600
      3 O1          27.4640   -55.0840    -9.6020 os         1 LEV      -0.391600
      4 C2          27.5260   -54.9960    -7.1260 c6         1 LEV       0.152500
      5 N2          28.7100   -55.7150   -12.1220 n3         1 LEV      -0.725600
      6 O2          31.4090   -59.1800    -7.0910 oh         1 LEV      -0.611800
      7 C3          26.6470   -55.1130    -8.3990 c6         1 LEV       0.121400
      8 N3          29.0540   -54.3660   -14.6790 n3         1 LEV      -0.720600
      9 O3          31.0290   -58.7980    -3.8640 oh         1 LEV      -0.640300
     10 C4          28.7380   -55.7960    -9.5810 c6         1 LEV       0.147100
     11 O4          29.2380   -59.9340    -4.8780 oh         1 LEV      -0.640300
     12 C5          28.8020   -56.7630    -8.3720 c6         1 LEV       0.166500
     13 C6          28.5970   -56.8940    -5.9170 c6         1 LEV       0.177800
     14 C7          29.8960   -57.7300    -5.7980 c6         1 LEV      -0.085700
     15 C8          30.1540   -58.4980    -7.1320 c6         1 LEV       0.150100
     16 C9          30.1430   -57.5320    -8.3450 c6         1 LEV      -0.093700
     17 C10         30.3370   -58.2970    -9.6820 c6         1 LEV      -0.108400
     18 C11         30.2660   -57.3490   -10.8990 c6         1 LEV       0.133600
     19 C12         28.9170   -56.5730   -10.9120 c6         1 LEV       0.163500
     20 C13         29.5430   -54.4840   -12.2230 c6         1 LEV       0.139800
     21 C14         29.0670   -53.6070   -13.4030 c6         1 LEV       0.163300
     22 C15         28.2160   -55.5860   -14.5660 c6         1 LEV       0.163300
     23 C16         28.6750   -56.4830   -13.3950 c6         1 LEV       0.139800
     24 C17         30.4080   -54.6250   -15.2220 c3         1 LEV       0.147100
     25 C18         29.7750   -58.6510    -4.5450 c3         1 LEV       0.342900
     26 F1          31.3240   -56.5160   -10.8650 f          1 LEV      -0.238300
     27 H01         28.7920   -53.3640    -7.8510 hc         1 LEV       0.042700
     28 H02         27.3420   -52.8270    -6.9880 hc         1 LEV       0.042700
     29 H03         28.7120   -53.4920    -6.0880 hc         1 LEV       0.042700
     30 H04         26.8740   -55.1460    -6.2610 h1         1 LEV       0.034700
     31 H05         31.5000   -59.6500    -7.9400 ho         1 LEV       0.407000
     32 H06         26.1020   -56.0600    -8.3760 h1         1 LEV       0.053700
     33 H07         25.9220   -54.2960    -8.4440 h1         1 LEV       0.053700
     34 H08         31.4210   -59.6750    -4.0340 ho         1 LEV       0.428000
     35 H09         29.5380   -55.0570    -9.4730 h1         1 LEV       0.084700
     36 H10         29.2480   -60.5020    -4.0910 ho         1 LEV       0.428000
     37 H11         27.9880   -57.4890    -8.4690 h1         1 LEV       0.027700
     38 H12         27.7350   -57.5640    -5.9840 h1         1 LEV       0.045200
     39 H13         28.4920   -56.2850    -5.0150 h1         1 LEV       0.045200
     40 H14         30.7230   -57.0320    -5.6390 hc         1 LEV       0.093700
     41 H15         29.3590   -59.2340    -7.2780 h1         1 LEV       0.059700
     42 H16         30.9610   -56.8130    -8.2280 hc         1 LEV       0.091700
     43 H17         29.5670   -59.0660    -9.7800 hc         1 LEV       0.054700
     44 H18         31.3040   -58.8040    -9.6900 hc         1 LEV       0.054700
     45 H19         30.3610   -57.9470   -11.8080 h1         1 LEV       0.051700
     46 H20         28.1240   -57.3260   -10.9350 h1         1 LEV       0.062700
     47 H21         30.5930   -54.7460   -12.3710 h1         1 LEV       0.039950
     48 H22         29.4590   -53.8940   -11.3080 h1         1 LEV       0.039950
     49 H23         28.0520   -53.2580   -13.1890 h1         1 LEV       0.058200
     50 H24         29.7130   -52.7300   -13.4960 h1         1 LEV       0.058200
     51 H25         28.2520   -56.1510   -15.5020 h1         1 LEV       0.058200
     52 H26         27.1790   -55.2860   -14.3900 h1         1 LEV       0.058200
     53 H27         27.9780   -57.3200   -13.3000 h1         1 LEV       0.039950
     54 H28         29.6670   -56.8830   -13.6170 h1         1 LEV       0.039950
     55 H29         30.9830   -55.2660   -14.5490 h1         1 LEV       0.031367
     56 H30         30.3280   -55.1160   -16.1960 h1         1 LEV       0.031367
     57 H31         30.9410   -53.6800   -15.3510 h1         1 LEV       0.031367
     58 H32         29.0930   -58.1940    -3.8110 h2         1 LEV       0.066700
@<TRIPOS>BOND
     1    56    24 1   
     2    51    22 1   
     3    57    24 1   
     4    24     8 1   
     5    24    55 1   
     6     8    22 1   
     7     8    21 1   
     8    22    52 1   
     9    22    23 1   
    10    54    23 1   
    11    23    53 1   
    12    23     5 1   
    13    50    21 1   
    14    21    49 1   
    15    21    20 1   
    16    47    20 1   
    17     5    20 1   
    18     5    19 1   
    19    20    48 1   
    20    45    18 1   
    21    26    18 1   
    22    18    19 1   
    23    18    17 1   
    24    46    19 1   
    25    19    10 1   
    26    43    17 1   
    27    44    17 1   
    28    17    16 1   
    29     3    10 1   
    30     3     7 1   
    31    10    35 1   
    32    10    12 1   
    33    32     7 1   
    34    33     7 1   
    35     7     4 1   
    36    37    12 1   
    37    16    12 1   
    38    16    42 1   
    39    16    15 1   
    40    12     2 1   
    41    31     6 1   
    42    27     1 1   
    43    28     1 1   
    44    41    15 1   
    45     4     2 1   
    46     4     1 1   
    47     4    30 1   
    48     2    13 1   
    49    15     6 1   
    50    15    14 1   
    51     1    29 1   
    52    38    13 1   
    53    13    14 1   
    54    13    39 1   
    55    14    40 1   
    56    14    25 1   
    57    11    25 1   
    58    11    36 1   
    59    25     9 1   
    60    25    58 1   
    61    34     9 1   
@<TRIPOS>SUBSTRUCTURE
     1 LEV         1 TEMP              0 ****  ****    0 ROOT
