MODEL 1
REMARK VINA RESULT:    -6.238      0.000      0.000
REMARK INTER + INTRA:          -7.839
REMARK INTER:                  -7.514
REMARK INTRA:                  -0.325
REMARK UNBOUND:                -0.325
REMARK  5 active torsions:
REMARK  status: ('A' for Active; 'I' for Inactive)
REMARK    1  A    between atoms: C2_2  and  N1_3 
REMARK    2  A    between atoms: C4_5  and  C12_15 
REMARK    3  A    between atoms: C5_6  and  O1_7 
REMARK    4  A    between atoms: C12_15  and  O2_16 
REMARK    5  A    between atoms: C12_15  and  O3_17 
ROOT
HETATM    1  N1  NDX     1     -24.135   2.129  45.994  1.00  0.00     0.122 N 
HETATM    2  C3  NDX     1     -25.217   1.953  45.004  1.00  0.00     0.287 C 
HETATM    3  C4  NDX     1     -25.261   3.156  44.047  1.00  0.00     0.098 C 
HETATM    4  C5  NDX     1     -25.512   4.448  44.865  1.00  0.00     0.136 C 
HETATM    5  C6  NDX     1     -24.460   4.602  45.991  1.00  0.00     0.079 C 
HETATM    6  C7  NDX     1     -24.367   3.318  46.855  1.00  0.00     0.460 C 
HETATM    7  N2  NDX     1     -23.273   3.454  47.844  1.00  0.00     0.122 N 
HETATM    8  C8  NDX     1     -23.190   4.766  48.527  1.00  0.00     0.219 C 
HETATM    9  C9  NDX     1     -24.458   5.619  48.354  1.00  0.00     0.036 C 
HETATM   10  C10 NDX     1     -24.766   5.845  46.867  1.00  0.00     0.013 C 
HETATM   11  C11 NDX     1     -22.902   4.534  50.011  1.00  0.00     0.042 C 
HETATM   12  H7  NDX     1     -22.359   3.291  47.356  1.00  0.00     0.319 HD
ENDROOT
BRANCH   3  13
HETATM   13  C12 NDX     1     -26.312   2.925  42.928  1.00  0.00     0.262 C 
BRANCH  13  14
HETATM   14  O2  NDX     1     -25.899   3.499  41.713  1.00  0.00    -0.371 OA
HETATM   15  H12 NDX     1     -25.502   2.777  41.159  1.00  0.00     0.212 HD
ENDBRANCH  13  14
BRANCH  13  16
HETATM   16  O3  NDX     1     -26.576   1.555  42.752  1.00  0.00    -0.371 OA
HETATM   17  H12 NDX     1     -27.561   1.442  42.811  1.00  0.00     0.212 HD
ENDBRANCH  13  16
ENDBRANCH   3  13
BRANCH   4  18
HETATM   18  O1  NDX     1     -25.512   5.584  44.034  1.00  0.00    -0.394 OA
HETATM   19  H4  NDX     1     -24.787   5.466  43.366  1.00  0.00     0.210 HD
ENDBRANCH   4  18
BRANCH   1  20
HETATM   20  C2  NDX     1     -23.872   0.875  46.746  1.00  0.00     0.271 C 
HETATM   21  C1  NDX     1     -24.968   0.491  47.750  1.00  0.00     0.037 C 
ENDBRANCH   1  20
TORSDOF 5
ENDMDL
