MODEL 1
REMARK VINA RESULT:    -6.824      0.000      0.000
REMARK INTER + INTRA:          -9.214
REMARK INTER:                  -8.619
REMARK INTRA:                  -0.596
REMARK UNBOUND:                -0.596
REMARK  6 active torsions:
REMARK  status: ('A' for Active; 'I' for Inactive)
REMARK    1  A    between atoms: C2_2  and  N1_3 
REMARK    2  A    between atoms: C4_5  and  C16_21 
REMARK    3  A    between atoms: C5_6  and  O1_7 
REMARK    4  A    between atoms: C9_11  and  N2_14 
REMARK    5  A    between atoms: C16_21  and  O2_22 
REMARK    6  A    between atoms: C16_21  and  O3_23 
ROOT
HETATM    1  N1  NOR     1      11.667   4.846   6.848  1.00  0.00     0.093 N 
HETATM    2  C3  NOR     1      10.428   4.733   7.666  1.00  0.00     0.284 C 
HETATM    3  C4  NOR     1      10.630   4.119   9.082  1.00  0.00     0.098 C 
HETATM    4  C5  NOR     1      11.825   4.751   9.870  1.00  0.00     0.135 C 
HETATM    5  C6  NOR     1      12.649   5.708   8.986  1.00  0.00     0.051 C 
HETATM    6  C7  NOR     1      13.942   6.215   9.690  1.00  0.00     0.049 C 
HETATM    7  C8  NOR     1      15.242   5.661   9.077  1.00  0.00     0.204 C 
HETATM    8  C9  NOR     1      15.324   5.826   7.528  1.00  0.00     0.258 C 
HETATM    9  C10 NOR     1      13.929   5.876   6.841  1.00  0.00     0.075 C 
HETATM   10  C11 NOR     1      12.919   5.021   7.626  1.00  0.00     0.231 C 
HETATM   11  F1  NOR     1      16.339   6.237   9.699  1.00  0.00    -0.247 F 
ENDROOT
BRANCH   8  12
HETATM   12  N2  NOR     1      16.249   6.917   7.113  1.00  0.00     0.099 N 
HETATM   13  C12 NOR     1      17.577   6.405   6.722  1.00  0.00     0.302 C 
HETATM   14  C13 NOR     1      18.549   7.575   6.525  1.00  0.00     0.299 C 
HETATM   15  N3  NOR     1      18.042   8.521   5.522  1.00  0.00     0.086 N 
HETATM   16  C14 NOR     1      16.704   9.003   5.889  1.00  0.00     0.299 C 
HETATM   17  H13 NOR     1      17.983   8.032   4.597  1.00  0.00     0.315 HD
HETATM   18  C15 NOR     1      15.728   7.835   6.078  1.00  0.00     0.302 C 
ENDBRANCH   8  12
BRANCH   1  19
HETATM   19  C2  NOR     1      11.764   3.783   5.822  1.00  0.00     0.268 C 
HETATM   20  C1  NOR     1      10.382   3.497   5.247  1.00  0.00     0.037 C 
ENDBRANCH   1  19
BRANCH   4  21
HETATM   21  O1  NOR     1      11.344   5.460  10.984  1.00  0.00    -0.395 OA
HETATM   22  H4  NOR     1      11.717   6.379  10.921  1.00  0.00     0.210 HD
ENDBRANCH   4  21
BRANCH   3  23
HETATM   23  C16 NOR     1      10.680   2.570   9.058  1.00  0.00     0.262 C 
BRANCH  23  24
HETATM   24  O2  NOR     1      10.120   2.055  10.239  1.00  0.00    -0.371 OA
HETATM   25  H12 NOR     1       9.531   2.763  10.611  1.00  0.00     0.212 HD
ENDBRANCH  23  24
BRANCH  23  26
HETATM   26  O3  NOR     1      12.003   2.120   8.949  1.00  0.00    -0.371 OA
HETATM   27  H18 NOR     1      12.473   2.430   9.767  1.00  0.00     0.212 HD
ENDBRANCH  23  26
ENDBRANCH   3  23
TORSDOF 6
ENDMDL
