MODEL 1
REMARK VINA RESULT:    -7.522      0.000      0.000
REMARK INTER + INTRA:         -14.191
REMARK INTER:                 -12.358
REMARK INTRA:                  -1.832
REMARK UNBOUND:                -1.832
REMARK  16 active torsions:
REMARK  status: ('A' for Active; 'I' for Inactive)
REMARK    1  A    between atoms: C2_2  and  N5_32 
REMARK    2  A    between atoms: C3_3  and  O7_21 
REMARK    3  A    between atoms: C4_4  and  O6_20 
REMARK    4  A    between atoms: C5_5  and  O1_8 
REMARK    5  A    between atoms: C6_6  and  N1_7 
REMARK    6  A    between atoms: O1_8  and  C7_9 
REMARK    7  A    between atoms: C8_10  and  O5_19 
REMARK    8  A    between atoms: C9_11  and  N2_18 
REMARK    9  A    between atoms: C10_12  and  O4_17 
REMARK   10  A    between atoms: C11_13  and  C12_15 
REMARK   11  A    between atoms: C12_15  and  O3_16 
REMARK   12  A    between atoms: O7_21  and  C13_22 
REMARK   13  A    between atoms: C14_23  and  N4_31 
REMARK   14  A    between atoms: C16_25  and  O9_30 
REMARK   15  A    between atoms: C17_26  and  C18_28 
REMARK   16  A    between atoms: C18_28  and  N3_29 
ROOT
HETATM    1  C1  TOB     1     -40.026  -5.408  38.099  1.00  0.00     0.076 C 
HETATM    2  C2  TOB     1     -39.597  -6.569  39.027  1.00  0.00     0.251 C 
HETATM    3  C3  TOB     1     -40.053  -6.375  40.497  1.00  0.00     0.189 C 
HETATM    4  C4  TOB     1     -41.544  -5.989  40.607  1.00  0.00     0.180 C 
HETATM    5  C5  TOB     1     -41.906  -4.746  39.746  1.00  0.00     0.189 C 
HETATM    6  C6  TOB     1     -41.480  -4.900  38.268  1.00  0.00     0.251 C 
ENDROOT
BRANCH   5   7
HETATM    7  O1  TOB     1     -41.275  -3.582  40.262  1.00  0.00    -0.348 OA
BRANCH   7   8
HETATM    8  C7  TOB     1     -41.985  -2.998  41.346  1.00  0.00     0.291 C 
HETATM    9  C8  TOB     1     -42.412  -1.562  40.953  1.00  0.00     0.208 C 
HETATM   10  C9  TOB     1     -42.703  -0.680  42.202  1.00  0.00     0.282 C 
HETATM   11  C10 TOB     1     -42.978  -1.558  43.435  1.00  0.00     0.184 C 
HETATM   12  C11 TOB     1     -41.768  -2.509  43.660  1.00  0.00     0.179 C 
HETATM   13  O2  TOB     1     -41.124  -2.960  42.470  1.00  0.00    -0.349 OA
BRANCH   9  14
HETATM   14  O5  TOB     1     -41.445  -0.942  40.139  1.00  0.00    -0.388 OA
HETATM   15  H21 TOB     1     -40.703  -1.589  40.008  1.00  0.00     0.210 HD
ENDBRANCH   9  14
BRANCH  10  16
HETATM   16  N2  TOB     1     -43.826   0.231  41.959  1.00  0.00     0.088 N 
HETATM   17  H19 TOB     1     -43.554   0.900  41.202  1.00  0.00     0.313 HD
HETATM   18  H20 TOB     1     -44.649  -0.315  41.616  1.00  0.00     0.313 HD
ENDBRANCH  10  16
BRANCH  11  19
HETATM   19  O4  TOB     1     -43.156  -0.754  44.575  1.00  0.00    -0.391 OA
HETATM   20  H18 TOB     1     -44.121  -0.530  44.626  1.00  0.00     0.210 HD
ENDBRANCH  11  19
BRANCH  12  21
HETATM   21  C12 TOB     1     -42.109  -3.699  44.571  1.00  0.00     0.198 C 
BRANCH  21  22
HETATM   22  O3  TOB     1     -43.221  -3.423  45.380  1.00  0.00    -0.398 OA
HETATM   23  H17 TOB     1     -43.958  -3.143  44.777  1.00  0.00     0.209 HD
ENDBRANCH  21  22
ENDBRANCH  12  21
ENDBRANCH   7   8
ENDBRANCH   5   7
BRANCH   4  24
HETATM   24  O6  TOB     1     -42.357  -7.085  40.276  1.00  0.00    -0.390 OA
HETATM   25  H22 TOB     1     -41.765  -7.881  40.230  1.00  0.00     0.210 HD
ENDBRANCH   4  24
BRANCH   6  26
HETATM   26  N1  TOB     1     -42.457  -5.675  37.494  1.00  0.00     0.085 N 
HETATM   27  H8  TOB     1     -42.023  -6.576  37.189  1.00  0.00     0.313 HD
HETATM   28  H9  TOB     1     -43.300  -5.900  38.058  1.00  0.00     0.313 HD
ENDBRANCH   6  26
BRANCH   3  29
HETATM   29  O7  TOB     1     -39.289  -5.353  41.126  1.00  0.00    -0.349 OA
BRANCH  29  30
HETATM   30  C13 TOB     1     -37.889  -5.604  41.105  1.00  0.00     0.293 C 
HETATM   31  C14 TOB     1     -37.436  -6.119  42.494  1.00  0.00     0.275 C 
HETATM   32  C15 TOB     1     -35.919  -5.886  42.710  1.00  0.00     0.074 C 
HETATM   33  C16 TOB     1     -35.178  -5.750  41.374  1.00  0.00     0.151 C 
HETATM   34  C17 TOB     1     -35.827  -4.614  40.525  1.00  0.00     0.181 C 
HETATM   35  O8  TOB     1     -37.207  -4.397  40.814  1.00  0.00    -0.349 OA
BRANCH  31  36
HETATM   36  N4  TOB     1     -38.211  -5.488  43.566  1.00  0.00     0.087 N 
HETATM   37  H34 TOB     1     -39.228  -5.551  43.328  1.00  0.00     0.313 HD
HETATM   38  H35 TOB     1     -38.059  -6.009  44.460  1.00  0.00     0.313 HD
ENDBRANCH  31  36
BRANCH  33  39
HETATM   39  O9  TOB     1     -33.825  -5.454  41.611  1.00  0.00    -0.393 OA
HETATM   40  H33 TOB     1     -33.347  -5.584  40.751  1.00  0.00     0.210 HD
ENDBRANCH  33  39
BRANCH  34  41
HETATM   41  C18 TOB     1     -35.642  -4.820  39.004  1.00  0.00     0.301 C 
BRANCH  41  42
HETATM   42  N3  TOB     1     -34.235  -4.804  38.603  1.00  0.00     0.080 N 
HETATM   43  H31 TOB     1     -33.716  -5.548  39.125  1.00  0.00     0.312 HD
HETATM   44  H32 TOB     1     -34.166  -5.011  37.581  1.00  0.00     0.312 HD
ENDBRANCH  41  42
ENDBRANCH  34  41
ENDBRANCH  29  30
ENDBRANCH   3  29
BRANCH   2  45
HETATM   45  N5  TOB     1     -39.976  -7.889  38.511  1.00  0.00     0.085 N 
HETATM   46  H36 TOB     1     -40.588  -7.809  37.676  1.00  0.00     0.313 HD
HETATM   47  H37 TOB     1     -39.113  -8.401  38.218  1.00  0.00     0.313 HD
ENDBRANCH   2  45
TORSDOF 16
ENDMDL
