MODEL 1
REMARK VINA RESULT:    -7.779      0.000      0.000
REMARK INTER + INTRA:         -12.296
REMARK INTER:                 -10.735
REMARK INTRA:                  -1.561
REMARK UNBOUND:                -1.561
REMARK  7 active torsions:
REMARK  status: ('A' for Active; 'I' for Inactive)
REMARK    1  A    between atoms: S_2  and  N_15 
REMARK    2  A    between atoms: O_4  and  C_23 
REMARK    3  A    between atoms: N_12  and  CA_19 
REMARK       I    between atoms: N_12  and  C_24 
REMARK    4  A    between atoms: N_13  and  CA_25 
REMARK       I    between atoms: N_13  and  C_27 
REMARK       I    between atoms: N_14  and  C_27 
REMARK    5  A    between atoms: CA_18  and  C_23 
REMARK    6  A    between atoms: C_24  and  CA_25 
REMARK    7  A    between atoms: CA_25  and  C_26 
ROOT
HETATM    1  CA  MEZ     1     -45.035  -3.704  31.313  1.00  0.00     0.211 C 
ENDROOT
BRANCH   1   2
HETATM    2  N   MEZ     1     -44.914  -3.106  32.623  1.00  0.00    -0.325 N 
HETATM    3  C   MEZ     1     -45.216  -1.772  32.865  1.00  0.00     0.327 C 
HETATM    4  O   MEZ     1     -45.609  -0.997  31.989  1.00  0.00    -0.247 OA
HETATM    5  N   MEZ     1     -45.026  -1.378  34.210  1.00  0.00    -0.249 N 
HETATM    6  C   MEZ     1     -45.210   0.021  34.596  1.00  0.00     0.159 C 
HETATM    7  C   MEZ     1     -44.587  -2.128  35.324  1.00  0.00     0.342 C 
HETATM    8  C   MEZ     1     -45.195   0.062  36.122  1.00  0.00     0.167 C 
HETATM    9  N   MEZ     1     -44.564  -1.236  36.442  1.00  0.00    -0.225 N 
HETATM   10  O   MEZ     1     -44.292  -3.313  35.373  1.00  0.00    -0.245 OA
HETATM   11  H   MEZ     1     -44.614  -3.694  33.394  1.00  0.00     0.165 HD
BRANCH   9  12
HETATM   12  S   MEZ     1     -44.360  -1.678  38.059  1.00  0.00     0.232 S 
HETATM   13  O   MEZ     1     -45.259  -2.773  38.383  1.00  0.00    -0.206 OA
HETATM   14  O   MEZ     1     -42.942  -1.767  38.367  1.00  0.00    -0.206 OA
HETATM   15  C   MEZ     1     -44.988  -0.219  38.858  1.00  0.00     0.186 C 
ENDBRANCH   9  12
ENDBRANCH   1   2
BRANCH   1  16
HETATM   16  C   MEZ     1     -43.671  -4.252  30.913  1.00  0.00     0.245 C 
HETATM   17  O   MEZ     1     -43.288  -4.314  29.745  1.00  0.00    -0.271 OA
HETATM   18  N   MEZ     1     -42.895  -4.630  32.009  1.00  0.00    -0.344 N 
HETATM   19  H   MEZ     1     -43.304  -4.531  32.935  1.00  0.00     0.163 HD
BRANCH  18  20
HETATM   20  CA  MEZ     1     -41.533  -5.144  31.880  1.00  0.00     0.199 A 
HETATM   21  C   MEZ     1     -40.807  -5.587  33.158  1.00  0.00     0.160 A 
HETATM   22  S   MEZ     1     -41.823  -5.755  34.670  1.00  0.00    -0.135 SA
HETATM   23  N   MEZ     1     -40.797  -6.945  32.607  1.00  0.00    -0.219 NA
HETATM   24  C   MEZ     1     -41.246  -7.509  34.911  1.00  0.00     0.029 C 
HETATM   25  CA  MEZ     1     -41.137  -8.057  33.471  1.00  0.00     0.182 C 
HETATM   26  C   MEZ     1     -42.296  -8.272  35.720  1.00  0.00     0.029 C 
HETATM   27  C   MEZ     1     -39.919  -7.468  35.680  1.00  0.00     0.029 C 
HETATM   28  C   MEZ     1     -41.447  -6.622  31.450  1.00  0.00     0.227 A 
HETATM   29  O   MEZ     1     -41.884  -7.287  30.540  1.00  0.00    -0.277 OA
BRANCH  25  30
HETATM   30  C   MEZ     1     -40.095  -9.111  33.266  1.00  0.00     0.160 C 
HETATM   31  OXT MEZ     1     -38.993  -8.922  32.773  1.00  0.00    -0.649 OA
BRANCH  30  32
HETATM   32  O   MEZ     1     -40.540 -10.315  33.701  1.00  0.00    -0.775 OA
HETATM   33  H   MEZ     1     -41.436 -10.254  34.094  1.00  0.00     0.167 HD
ENDBRANCH  30  32
ENDBRANCH  25  30
ENDBRANCH  18  20
ENDBRANCH   1  16
BRANCH   1  34
HETATM   34  C   MEZ     1     -46.102  -4.772  31.276  1.00  0.00    -0.026 A 
HETATM   35  C   MEZ     1     -47.139  -4.690  30.346  1.00  0.00     0.010 A 
HETATM   36  C   MEZ     1     -48.124  -5.677  30.312  1.00  0.00     0.001 A 
HETATM   37  C   MEZ     1     -48.073  -6.744  31.209  1.00  0.00     0.000 A 
HETATM   38  C   MEZ     1     -47.038  -6.825  32.138  1.00  0.00     0.001 A 
HETATM   39  C   MEZ     1     -46.052  -5.839  32.173  1.00  0.00     0.010 A 
ENDBRANCH   1  34
TORSDOF 7
ENDMDL
