MODEL 1
REMARK VINA RESULT:     -11.2      0.000      0.000
REMARK  8 active torsions:
REMARK  status: ('A' for Active; 'I' for Inactive)
REMARK    1  A    between atoms: PA_1  and  O5'_5 
REMARK    2  A    between atoms: PA_1  and  O3A_24 
REMARK    3  A    between atoms: PB_2  and  N3B_23 
REMARK    4  A    between atoms: PB_2  and  O3A_24 
REMARK    5  A    between atoms: PG_3  and  N3B_23 
REMARK    6  A    between atoms: C5'_4  and  O5'_5 
REMARK    7  A    between atoms: C5'_4  and  C4'_6 
REMARK    8  A    between atoms: C1'_12  and  N9_32 
ROOT
HETATM    1  C4' GNP A 200       0.085  44.373  18.694  1.00 11.60     0.181 C 
HETATM    2  O4' GNP A 200      -0.786  43.200  18.611  1.00 10.96    -0.331 OA
HETATM    3  C3' GNP A 200       0.377  44.573  20.190  1.00 12.08     0.216 C 
HETATM    4  O3' GNP A 200      -0.655  45.434  20.733  1.00 14.40    -0.218 OA
HETATM    5  C2' GNP A 200       0.213  43.130  20.761  1.00 12.17     0.234 C 
HETATM    6  O2' GNP A 200      -0.246  43.053  22.139  1.00 13.60    -0.216 OA
HETATM    7  C1' GNP A 200      -0.959  42.585  19.917  1.00 11.60     0.241 C 
ENDROOT
BRANCH   1   8
HETATM    8  C5' GNP A 200       1.293  44.211  17.864  1.00 10.62     0.187 C 
BRANCH   8   9
HETATM    9  O5' GNP A 200       2.402  43.681  18.626  1.00  9.72    -0.268 OA
BRANCH   9  10
HETATM   10  PA  GNP A 200       3.743  43.369  17.963  1.00 10.32     0.418 P 
HETATM   11  O1A GNP A 200       4.131  41.911  18.230  1.00  9.87    -0.624 OA
HETATM   12  O2A GNP A 200       4.758  44.454  18.260  1.00 11.09    -0.624 OA
BRANCH  10  13
HETATM   13  O3A GNP A 200       3.354  43.529  16.328  1.00  9.21    -0.185 OA
BRANCH  13  14
HETATM   14  PB  GNP A 200       4.325  43.676  15.125  1.00  8.42     0.401 P 
HETATM   15  O1B GNP A 200       3.520  43.169  13.996  1.00  8.14    -0.628 OA
HETATM   16  O2B GNP A 200       5.571  43.038  15.394  1.00  8.71    -0.628 OA
BRANCH  14  17
HETATM   17  N3B GNP A 200       4.507  45.422  14.935  1.00  9.58    -0.091 NA
BRANCH  17  18
HETATM   18  PG  GNP A 200       5.793  46.122  14.252  1.00  9.51     0.404 P 
HETATM   19  O1G GNP A 200       5.451  47.605  13.964  1.00 10.72    -0.621 OA
HETATM   20  O2G GNP A 200       6.185  45.406  13.102  1.00 10.01    -0.621 OA
HETATM   21  O3G GNP A 200       6.864  46.022  15.372  1.00 11.72    -0.621 OA
ENDBRANCH  17  18
ENDBRANCH  14  17
ENDBRANCH  13  14
ENDBRANCH  10  13
ENDBRANCH   9  10
ENDBRANCH   8   9
ENDBRANCH   1   8
BRANCH   7  22
HETATM   22  N9  GNP A 200      -1.037  41.096  19.707  1.00  9.54    -0.269 N 
HETATM   23  C4  GNP A 200      -2.029  40.317  20.062  1.00  9.54     0.187 A 
HETATM   24  N3  GNP A 200      -3.185  40.601  20.627  1.00 10.76    -0.039 NA
HETATM   25  C5  GNP A 200      -1.515  39.045  19.714  1.00  8.26     0.162 A 
HETATM   26  C2  GNP A 200      -3.986  39.693  20.870  1.00  9.86     0.772 A 
HETATM   27  N1  GNP A 200      -3.660  38.279  20.553  1.00 10.22    -0.029 NA
HETATM   28  N2  GNP A 200      -5.165  39.720  21.401  1.00 11.49     0.062 N 
HETATM   29  C6  GNP A 200      -2.470  38.037  20.010  1.00 10.19     0.251 A 
HETATM   30  O6  GNP A 200      -2.159  36.740  19.750  1.00 11.17    -0.167 OA
HETATM   31  N7  GNP A 200      -0.337  39.154  19.197  1.00  8.86    -0.219 NA
HETATM   32  C8  GNP A 200       0.082  40.435  19.156  1.00 11.92     0.182 A 
ENDBRANCH   7  22
TORSDOF 8
ENDMDL
