MODEL 1
REMARK VINA RESULT:     -10.9      0.000      0.000
REMARK  8 active torsions:
REMARK  status: ('A' for Active; 'I' for Inactive)
REMARK    1  A    between atoms: PA_1  and  O5'_5 
REMARK    2  A    between atoms: PA_1  and  O3A_24 
REMARK    3  A    between atoms: PB_2  and  N3B_23 
REMARK    4  A    between atoms: PB_2  and  O3A_24 
REMARK    5  A    between atoms: PG_3  and  N3B_23 
REMARK    6  A    between atoms: C5'_4  and  O5'_5 
REMARK    7  A    between atoms: C5'_4  and  C4'_6 
REMARK    8  A    between atoms: C1'_12  and  N9_32 
ROOT
HETATM    1  C4' GNP A 200       0.884  43.786  18.676  1.00 11.60     0.181 C 
HETATM    2  O4' GNP A 200      -0.048  42.695  18.390  1.00 10.96    -0.331 OA
HETATM    3  C3' GNP A 200       0.665  44.148  20.153  1.00 12.08     0.216 C 
HETATM    4  O3' GNP A 200      -0.372  45.159  20.214  1.00 14.40    -0.218 OA
HETATM    5  C2' GNP A 200       0.130  42.809  20.752  1.00 12.17     0.234 C 
HETATM    6  O2' GNP A 200      -0.783  42.950  21.875  1.00 13.60    -0.216 OA
HETATM    7  C1' GNP A 200      -0.738  42.269  19.595  1.00 11.60     0.241 C 
ENDROOT
BRANCH   1   8
HETATM    8  C5' GNP A 200       2.273  43.413  18.349  1.00 10.62     0.187 C 
BRANCH   8   9
HETATM    9  O5' GNP A 200       3.199  44.486  18.638  1.00  9.72    -0.268 OA
BRANCH   9  10
HETATM   10  PA  GNP A 200       4.160  45.012  17.573  1.00 10.32     0.418 P 
HETATM   11  O1A GNP A 200       5.589  44.561  17.891  1.00  9.87    -0.624 OA
HETATM   12  O2A GNP A 200       3.909  46.481  17.296  1.00 11.09    -0.624 OA
BRANCH  10  13
HETATM   13  O3A GNP A 200       3.629  44.182  16.202  1.00  9.21    -0.185 OA
BRANCH  13  14
HETATM   14  PB  GNP A 200       4.451  43.789  14.945  1.00  8.42     0.401 P 
HETATM   15  O1B GNP A 200       3.463  43.056  14.128  1.00  8.14    -0.628 OA
HETATM   16  O2B GNP A 200       5.649  43.109  15.310  1.00  8.71    -0.628 OA
BRANCH  14  17
HETATM   17  N3B GNP A 200       4.785  45.334  14.155  1.00  9.58    -0.091 NA
BRANCH  17  18
HETATM   18  PG  GNP A 200       6.272  45.923  13.928  1.00  9.51     0.404 P 
HETATM   19  O1G GNP A 200       6.162  47.235  13.112  1.00 10.72    -0.621 OA
HETATM   20  O2G GNP A 200       7.094  44.952  13.318  1.00 10.01    -0.621 OA
HETATM   21  O3G GNP A 200       6.738  46.226  15.378  1.00 11.72    -0.621 OA
ENDBRANCH  17  18
ENDBRANCH  14  17
ENDBRANCH  13  14
ENDBRANCH  10  13
ENDBRANCH   9  10
ENDBRANCH   8   9
ENDBRANCH   1   8
BRANCH   7  22
HETATM   22  N9  GNP A 200      -0.930  40.778  19.503  1.00  9.54    -0.269 N 
HETATM   23  C4  GNP A 200      -1.972  40.106  19.924  1.00  9.54     0.187 A 
HETATM   24  N3  GNP A 200      -3.095  40.519  20.475  1.00 10.76    -0.039 NA
HETATM   25  C5  GNP A 200      -1.559  38.775  19.673  1.00  8.26     0.162 A 
HETATM   26  C2  GNP A 200      -3.959  39.695  20.795  1.00  9.86     0.772 A 
HETATM   27  N1  GNP A 200      -3.743  38.239  20.585  1.00 10.22    -0.029 NA
HETATM   28  N2  GNP A 200      -5.126  39.851  21.330  1.00 11.49     0.062 N 
HETATM   29  C6  GNP A 200      -2.582  37.868  20.054  1.00 10.19     0.251 A 
HETATM   30  O6  GNP A 200      -2.372  36.535  19.893  1.00 11.17    -0.167 OA
HETATM   31  N7  GNP A 200      -0.383  38.756  19.140  1.00  8.86    -0.219 NA
HETATM   32  C8  GNP A 200       0.130  39.994  18.996  1.00 11.92     0.182 A 
ENDBRANCH   7  22
TORSDOF 8
ENDMDL
