MODEL 1
REMARK VINA RESULT:      -5.4      0.000      0.000
REMARK  8 active torsions:
REMARK  status: ('A' for Active; 'I' for Inactive)
REMARK    1  A    between atoms: PA_1  and  O5'_5 
REMARK    2  A    between atoms: PA_1  and  O3A_24 
REMARK    3  A    between atoms: PB_2  and  N3B_23 
REMARK    4  A    between atoms: PB_2  and  O3A_24 
REMARK    5  A    between atoms: PG_3  and  N3B_23 
REMARK    6  A    between atoms: C5'_4  and  O5'_5 
REMARK    7  A    between atoms: C5'_4  and  C4'_6 
REMARK    8  A    between atoms: C1'_12  and  N9_32 
ROOT
HETATM    1  C4' GNP A 200      10.738  26.711  -3.542  1.00 11.60     0.181 C 
HETATM    2  O4' GNP A 200       9.982  27.959  -3.659  1.00 10.96    -0.331 OA
HETATM    3  C3' GNP A 200       9.763  25.685  -2.944  1.00 12.08     0.216 C 
HETATM    4  O3' GNP A 200       9.868  25.760  -1.500  1.00 14.40    -0.218 OA
HETATM    5  C2' GNP A 200       8.375  26.235  -3.399  1.00 12.17     0.234 C 
HETATM    6  O2' GNP A 200       7.266  25.949  -2.501  1.00 13.60    -0.216 OA
HETATM    7  C1' GNP A 200       8.589  27.760  -3.298  1.00 11.60     0.241 C 
ENDROOT
BRANCH   1   8
HETATM    8  C5' GNP A 200      11.317  26.304  -4.836  1.00 10.62     0.187 C 
BRANCH   8   9
HETATM    9  O5' GNP A 200      11.074  27.290  -5.866  1.00  9.72    -0.268 OA
BRANCH   9  10
HETATM   10  PA  GNP A 200      10.223  26.960  -7.093  1.00 10.32     0.418 P 
HETATM   11  O1A GNP A 200       9.153  25.929  -6.724  1.00  9.87    -0.624 OA
HETATM   12  O2A GNP A 200      11.098  26.695  -8.302  1.00 11.09    -0.624 OA
BRANCH  10  13
HETATM   13  O3A GNP A 200       9.465  28.440  -7.382  1.00  9.21    -0.185 OA
BRANCH  13  14
HETATM   14  PB  GNP A 200       8.723  28.899  -8.668  1.00  8.42     0.401 P 
HETATM   15  O1B GNP A 200       7.467  28.125  -8.610  1.00  8.14    -0.628 OA
HETATM   16  O2B GNP A 200       9.551  28.742  -9.817  1.00  8.71    -0.628 OA
BRANCH  14  17
HETATM   17  N3B GNP A 200       8.343  30.595  -8.357  1.00  9.58    -0.091 NA
BRANCH  17  18
HETATM   18  PG  GNP A 200       9.444  31.700  -7.937  1.00  9.51     0.404 P 
HETATM   19  O1G GNP A 200      10.098  31.262  -6.603  1.00 10.72    -0.621 OA
HETATM   20  O2G GNP A 200       8.855  32.980  -7.876  1.00 10.01    -0.621 OA
HETATM   21  O3G GNP A 200      10.472  31.607  -9.098  1.00 11.72    -0.621 OA
ENDBRANCH  17  18
ENDBRANCH  14  17
ENDBRANCH  13  14
ENDBRANCH  10  13
ENDBRANCH   9  10
ENDBRANCH   8   9
ENDBRANCH   1   8
BRANCH   7  22
HETATM   22  N9  GNP A 200       7.760  28.643  -4.194  1.00  9.54    -0.269 N 
HETATM   23  C4  GNP A 200       7.777  29.952  -4.218  1.00  9.54     0.187 A 
HETATM   24  N3  GNP A 200       8.508  30.814  -3.540  1.00 10.76    -0.039 NA
HETATM   25  C5  GNP A 200       6.750  30.222  -5.153  1.00  8.26     0.162 A 
HETATM   26  C2  GNP A 200       8.358  32.026  -3.730  1.00  9.86     0.772 A 
HETATM   27  N1  GNP A 200       7.352  32.530  -4.701  1.00 10.22    -0.029 NA
HETATM   28  N2  GNP A 200       8.952  33.048  -3.206  1.00 11.49     0.062 N 
HETATM   29  C6  GNP A 200       6.618  31.623  -5.340  1.00 10.19     0.251 A 
HETATM   30  O6  GNP A 200       5.675  32.086  -6.203  1.00 11.17    -0.167 OA
HETATM   31  N7  GNP A 200       6.241  29.124  -5.601  1.00  8.86    -0.219 NA
HETATM   32  C8  GNP A 200       6.805  28.036  -5.039  1.00 11.92     0.182 A 
ENDBRANCH   7  22
TORSDOF 8
ENDMDL
