MODEL 1
REMARK VINA RESULT:     -10.8      0.000      0.000
REMARK  8 active torsions:
REMARK  status: ('A' for Active; 'I' for Inactive)
REMARK    1  A    between atoms: PA_1  and  O5'_5 
REMARK    2  A    between atoms: PA_1  and  O3A_24 
REMARK    3  A    between atoms: PB_2  and  N3B_23 
REMARK    4  A    between atoms: PB_2  and  O3A_24 
REMARK    5  A    between atoms: PG_3  and  N3B_23 
REMARK    6  A    between atoms: C5'_4  and  O5'_5 
REMARK    7  A    between atoms: C5'_4  and  C4'_6 
REMARK    8  A    between atoms: C1'_12  and  N9_32 
ROOT
HETATM    1  C4' GNP A 200       0.179  44.785  19.120  1.00 11.60     0.181 C 
HETATM    2  O4' GNP A 200      -0.433  43.542  18.649  1.00 10.96    -0.331 OA
HETATM    3  C3' GNP A 200      -0.426  45.051  20.507  1.00 12.08     0.216 C 
HETATM    4  O3' GNP A 200      -1.629  45.838  20.325  1.00 14.40    -0.218 OA
HETATM    5  C2' GNP A 200      -0.803  43.616  20.991  1.00 12.17     0.234 C 
HETATM    6  O2' GNP A 200      -1.950  43.540  21.883  1.00 13.60    -0.216 OA
HETATM    7  C1' GNP A 200      -1.272  42.953  19.678  1.00 11.60     0.241 C 
ENDROOT
BRANCH   1   8
HETATM    8  C5' GNP A 200       1.652  44.701  19.113  1.00 10.62     0.187 C 
BRANCH   8   9
HETATM    9  O5' GNP A 200       2.115  43.441  18.576  1.00  9.72    -0.268 OA
BRANCH   9  10
HETATM   10  PA  GNP A 200       3.521  43.296  17.993  1.00 10.32     0.418 P 
HETATM   11  O1A GNP A 200       4.008  41.854  18.158  1.00  9.87    -0.624 OA
HETATM   12  O2A GNP A 200       4.419  44.422  18.464  1.00 11.09    -0.624 OA
BRANCH  10  13
HETATM   13  O3A GNP A 200       3.236  43.582  16.354  1.00  9.21    -0.185 OA
BRANCH  13  14
HETATM   14  PB  GNP A 200       4.281  43.736  15.216  1.00  8.42     0.401 P 
HETATM   15  O1B GNP A 200       3.535  43.277  14.027  1.00  8.14    -0.628 OA
HETATM   16  O2B GNP A 200       5.494  43.062  15.541  1.00  8.71    -0.628 OA
BRANCH  14  17
HETATM   17  N3B GNP A 200       4.512  45.482  15.084  1.00  9.58    -0.091 NA
BRANCH  17  18
HETATM   18  PG  GNP A 200       5.802  46.167  14.394  1.00  9.51     0.404 P 
HETATM   19  O1G GNP A 200       6.013  45.526  13.000  1.00 10.72    -0.621 OA
HETATM   20  O2G GNP A 200       6.926  46.054  15.238  1.00 10.01    -0.621 OA
HETATM   21  O3G GNP A 200       5.356  47.648  14.245  1.00 11.72    -0.621 OA
ENDBRANCH  17  18
ENDBRANCH  14  17
ENDBRANCH  13  14
ENDBRANCH  10  13
ENDBRANCH   9  10
ENDBRANCH   8   9
ENDBRANCH   1   8
BRANCH   7  22
HETATM   22  N9  GNP A 200      -1.141  41.457  19.565  1.00  9.54    -0.269 N 
HETATM   23  C4  GNP A 200      -2.034  40.573  19.935  1.00  9.54     0.187 A 
HETATM   24  N3  GNP A 200      -3.241  40.730  20.439  1.00 10.76    -0.039 NA
HETATM   25  C5  GNP A 200      -1.339  39.364  19.691  1.00  8.26     0.162 A 
HETATM   26  C2  GNP A 200      -3.924  39.737  20.713  1.00  9.86     0.772 A 
HETATM   27  N1  GNP A 200      -3.397  38.364  20.502  1.00 10.22    -0.029 NA
HETATM   28  N2  GNP A 200      -5.119  39.635  21.198  1.00 11.49     0.062 N 
HETATM   29  C6  GNP A 200      -2.163  38.255  20.018  1.00 10.19     0.251 A 
HETATM   30  O6  GNP A 200      -1.669  36.998  19.856  1.00 11.17    -0.167 OA
HETATM   31  N7  GNP A 200      -0.165  39.601  19.210  1.00  8.86    -0.219 NA
HETATM   32  C8  GNP A 200       0.080  40.922  19.099  1.00 11.92     0.182 A 
ENDBRANCH   7  22
TORSDOF 8
ENDMDL
