MODEL 1
REMARK VINA RESULT:     -11.2      0.000      0.000
REMARK  8 active torsions:
REMARK  status: ('A' for Active; 'I' for Inactive)
REMARK    1  A    between atoms: PA_1  and  O5'_5 
REMARK    2  A    between atoms: PA_1  and  O3A_24 
REMARK    3  A    between atoms: PB_2  and  N3B_23 
REMARK    4  A    between atoms: PB_2  and  O3A_24 
REMARK    5  A    between atoms: PG_3  and  N3B_23 
REMARK    6  A    between atoms: C5'_4  and  O5'_5 
REMARK    7  A    between atoms: C5'_4  and  C4'_6 
REMARK    8  A    between atoms: C1'_12  and  N9_32 
ROOT
HETATM    1  C4' GNP A 200       0.112  44.351  18.682  1.00 11.60     0.181 C 
HETATM    2  O4' GNP A 200      -0.764  43.182  18.596  1.00 10.96    -0.331 OA
HETATM    3  C3' GNP A 200       0.403  44.548  20.178  1.00 12.08     0.216 C 
HETATM    4  O3' GNP A 200      -0.627  45.412  20.722  1.00 14.40    -0.218 OA
HETATM    5  C2' GNP A 200       0.233  43.105  20.747  1.00 12.17     0.234 C 
HETATM    6  O2' GNP A 200      -0.229  43.028  22.124  1.00 13.60    -0.216 OA
HETATM    7  C1' GNP A 200      -0.940  42.566  19.901  1.00 11.60     0.241 C 
ENDROOT
BRANCH   1   8
HETATM    8  C5' GNP A 200       1.320  44.187  17.853  1.00 10.62     0.187 C 
BRANCH   8   9
HETATM    9  O5' GNP A 200       2.454  43.750  18.637  1.00  9.72    -0.268 OA
BRANCH   9  10
HETATM   10  PA  GNP A 200       3.775  43.361  17.973  1.00 10.32     0.418 P 
HETATM   11  O1A GNP A 200       4.083  41.886  18.250  1.00  9.87    -0.624 OA
HETATM   12  O2A GNP A 200       4.848  44.391  18.260  1.00 11.09    -0.624 OA
BRANCH  10  13
HETATM   13  O3A GNP A 200       3.391  43.530  16.338  1.00  9.21    -0.185 OA
BRANCH  13  14
HETATM   14  PB  GNP A 200       4.365  43.699  15.140  1.00  8.42     0.401 P 
HETATM   15  O1B GNP A 200       3.554  43.236  13.996  1.00  8.14    -0.628 OA
HETATM   16  O2B GNP A 200       5.602  43.037  15.391  1.00  8.71    -0.628 OA
BRANCH  14  17
HETATM   17  N3B GNP A 200       4.570  45.448  15.003  1.00  9.58    -0.091 NA
BRANCH  17  18
HETATM   18  PG  GNP A 200       5.804  46.149  14.231  1.00  9.51     0.404 P 
HETATM   19  O1G GNP A 200       5.437  47.629  13.958  1.00 10.72    -0.621 OA
HETATM   20  O2G GNP A 200       6.123  45.427  13.062  1.00 10.01    -0.621 OA
HETATM   21  O3G GNP A 200       6.948  46.061  15.278  1.00 11.72    -0.621 OA
ENDBRANCH  17  18
ENDBRANCH  14  17
ENDBRANCH  13  14
ENDBRANCH  10  13
ENDBRANCH   9  10
ENDBRANCH   8   9
ENDBRANCH   1   8
BRANCH   7  22
HETATM   22  N9  GNP A 200      -1.024  41.078  19.689  1.00  9.54    -0.269 N 
HETATM   23  C4  GNP A 200      -2.009  40.299  20.061  1.00  9.54     0.187 A 
HETATM   24  N3  GNP A 200      -3.153  40.582  20.650  1.00 10.76    -0.039 NA
HETATM   25  C5  GNP A 200      -1.503  39.027  19.700  1.00  8.26     0.162 A 
HETATM   26  C2  GNP A 200      -3.950  39.674  20.907  1.00  9.86     0.772 A 
HETATM   27  N1  GNP A 200      -3.631  38.260  20.580  1.00 10.22    -0.029 NA
HETATM   28  N2  GNP A 200      -5.119  39.700  21.461  1.00 11.49     0.062 N 
HETATM   29  C6  GNP A 200      -2.453  38.019  20.013  1.00 10.19     0.251 A 
HETATM   30  O6  GNP A 200      -2.148  36.722  19.743  1.00 11.17    -0.167 OA
HETATM   31  N7  GNP A 200      -0.335  39.137  19.160  1.00  8.86    -0.219 NA
HETATM   32  C8  GNP A 200       0.084  40.417  19.114  1.00 11.92     0.182 A 
ENDBRANCH   7  22
TORSDOF 8
ENDMDL
