MODEL 1
REMARK VINA RESULT:     -11.2      0.000      0.000
REMARK  8 active torsions:
REMARK  status: ('A' for Active; 'I' for Inactive)
REMARK    1  A    between atoms: PA_1  and  O5'_5 
REMARK    2  A    between atoms: PA_1  and  O3A_24 
REMARK    3  A    between atoms: PB_2  and  N3B_23 
REMARK    4  A    between atoms: PB_2  and  O3A_24 
REMARK    5  A    between atoms: PG_3  and  N3B_23 
REMARK    6  A    between atoms: C5'_4  and  O5'_5 
REMARK    7  A    between atoms: C5'_4  and  C4'_6 
REMARK    8  A    between atoms: C1'_12  and  N9_32 
ROOT
HETATM    1  C4' GNP A 200       0.039  44.419  18.702  1.00 11.60     0.181 C 
HETATM    2  O4' GNP A 200      -0.807  43.229  18.599  1.00 10.96    -0.331 OA
HETATM    3  C3' GNP A 200       0.289  44.627  20.204  1.00 12.08     0.216 C 
HETATM    4  O3' GNP A 200      -0.774  45.468  20.719  1.00 14.40    -0.218 OA
HETATM    5  C2' GNP A 200       0.138  43.182  20.774  1.00 12.17     0.234 C 
HETATM    6  O2' GNP A 200      -0.355  43.098  22.140  1.00 13.60    -0.216 OA
HETATM    7  C1' GNP A 200      -1.001  42.613  19.901  1.00 11.60     0.241 C 
ENDROOT
BRANCH   1   8
HETATM    8  C5' GNP A 200       1.271  44.280  17.903  1.00 10.62     0.187 C 
BRANCH   8   9
HETATM    9  O5' GNP A 200       2.312  43.595  18.637  1.00  9.72    -0.268 OA
BRANCH   9  10
HETATM   10  PA  GNP A 200       3.680  43.327  18.009  1.00 10.32     0.418 P 
HETATM   11  O1A GNP A 200       4.103  41.880  18.277  1.00  9.87    -0.624 OA
HETATM   12  O2A GNP A 200       4.654  44.440  18.340  1.00 11.09    -0.624 OA
BRANCH  10  13
HETATM   13  O3A GNP A 200       3.331  43.487  16.365  1.00  9.21    -0.185 OA
BRANCH  13  14
HETATM   14  PB  GNP A 200       4.328  43.702  15.193  1.00  8.42     0.401 P 
HETATM   15  O1B GNP A 200       3.529  43.313  14.014  1.00  8.14    -0.628 OA
HETATM   16  O2B GNP A 200       5.549  43.007  15.429  1.00  8.71    -0.628 OA
BRANCH  14  17
HETATM   17  N3B GNP A 200       4.563  45.452  15.150  1.00  9.58    -0.091 NA
BRANCH  17  18
HETATM   18  PG  GNP A 200       5.796  46.174  14.396  1.00  9.51     0.404 P 
HETATM   19  O1G GNP A 200       5.919  45.578  12.972  1.00 10.72    -0.621 OA
HETATM   20  O2G GNP A 200       6.976  46.048  15.159  1.00 10.01    -0.621 OA
HETATM   21  O3G GNP A 200       5.326  47.652  14.325  1.00 11.72    -0.621 OA
ENDBRANCH  17  18
ENDBRANCH  14  17
ENDBRANCH  13  14
ENDBRANCH  10  13
ENDBRANCH   9  10
ENDBRANCH   8   9
ENDBRANCH   1   8
BRANCH   7  22
HETATM   22  N9  GNP A 200      -1.045  41.122  19.693  1.00  9.54    -0.269 N 
HETATM   23  C4  GNP A 200      -2.013  40.320  20.057  1.00  9.54     0.187 A 
HETATM   24  N3  GNP A 200      -3.170  40.576  20.633  1.00 10.76    -0.039 NA
HETATM   25  C5  GNP A 200      -1.472  39.060  19.705  1.00  8.26     0.162 A 
HETATM   26  C2  GNP A 200      -3.947  39.648  20.885  1.00  9.86     0.772 A 
HETATM   27  N1  GNP A 200      -3.589  38.242  20.565  1.00 10.22    -0.029 NA
HETATM   28  N2  GNP A 200      -5.121  39.647  21.426  1.00 11.49     0.062 N 
HETATM   29  C6  GNP A 200      -2.399  38.030  20.010  1.00 10.19     0.251 A 
HETATM   30  O6  GNP A 200      -2.059  36.740  19.748  1.00 11.17    -0.167 OA
HETATM   31  N7  GNP A 200      -0.302  39.198  19.177  1.00  8.86    -0.219 NA
HETATM   32  C8  GNP A 200       0.085  40.488  19.131  1.00 11.92     0.182 A 
ENDBRANCH   7  22
TORSDOF 8
ENDMDL
