MODEL 1
REMARK VINA RESULT:     -11.1      0.000      0.000
REMARK  8 active torsions:
REMARK  status: ('A' for Active; 'I' for Inactive)
REMARK    1  A    between atoms: PA_1  and  O5'_5 
REMARK    2  A    between atoms: PA_1  and  O3A_24 
REMARK    3  A    between atoms: PB_2  and  N3B_23 
REMARK    4  A    between atoms: PB_2  and  O3A_24 
REMARK    5  A    between atoms: PG_3  and  N3B_23 
REMARK    6  A    between atoms: C5'_4  and  O5'_5 
REMARK    7  A    between atoms: C5'_4  and  C4'_6 
REMARK    8  A    between atoms: C1'_12  and  N9_32 
ROOT
HETATM    1  C4' GNP A 200       0.063  44.442  18.698  1.00 11.60     0.181 C 
HETATM    2  O4' GNP A 200      -0.782  43.251  18.594  1.00 10.96    -0.331 OA
HETATM    3  C3' GNP A 200       0.340  44.630  20.198  1.00 12.08     0.216 C 
HETATM    4  O3' GNP A 200      -0.715  45.460  20.745  1.00 14.40    -0.218 OA
HETATM    5  C2' GNP A 200       0.204  43.176  20.750  1.00 12.17     0.234 C 
HETATM    6  O2' GNP A 200      -0.264  43.072  22.124  1.00 13.60    -0.216 OA
HETATM    7  C1' GNP A 200      -0.950  42.617  19.891  1.00 11.60     0.241 C 
ENDROOT
BRANCH   1   8
HETATM    8  C5' GNP A 200       1.280  44.317  17.875  1.00 10.62     0.187 C 
BRANCH   8   9
HETATM    9  O5' GNP A 200       2.325  43.597  18.567  1.00  9.72    -0.268 OA
BRANCH   9  10
HETATM   10  PA  GNP A 200       3.686  43.351  17.914  1.00 10.32     0.418 P 
HETATM   11  O1A GNP A 200       4.101  41.889  18.108  1.00  9.87    -0.624 OA
HETATM   12  O2A GNP A 200       4.671  44.439  18.291  1.00 11.09    -0.624 OA
BRANCH  10  13
HETATM   13  O3A GNP A 200       3.323  43.593  16.284  1.00  9.21    -0.185 OA
BRANCH  13  14
HETATM   14  PB  GNP A 200       4.309  43.650  15.084  1.00  8.42     0.401 P 
HETATM   15  O1B GNP A 200       3.526  43.035  13.994  1.00  8.14    -0.628 OA
HETATM   16  O2B GNP A 200       5.560  43.057  15.423  1.00  8.71    -0.628 OA
BRANCH  14  17
HETATM   17  N3B GNP A 200       4.468  45.376  14.746  1.00  9.58    -0.091 NA
BRANCH  17  18
HETATM   18  PG  GNP A 200       5.844  46.074  14.267  1.00  9.51     0.404 P 
HETATM   19  O1G GNP A 200       5.539  47.536  13.857  1.00 10.72    -0.621 OA
HETATM   20  O2G GNP A 200       6.443  45.318  13.237  1.00 10.01    -0.621 OA
HETATM   21  O3G GNP A 200       6.703  46.044  15.561  1.00 11.72    -0.621 OA
ENDBRANCH  17  18
ENDBRANCH  14  17
ENDBRANCH  13  14
ENDBRANCH  10  13
ENDBRANCH   9  10
ENDBRANCH   8   9
ENDBRANCH   1   8
BRANCH   7  22
HETATM   22  N9  GNP A 200      -0.994  41.129  19.662  1.00  9.54    -0.269 N 
HETATM   23  C4  GNP A 200      -1.965  40.322  20.010  1.00  9.54     0.187 A 
HETATM   24  N3  GNP A 200      -3.125  40.572  20.583  1.00 10.76    -0.039 NA
HETATM   25  C5  GNP A 200      -1.423  39.067  19.645  1.00  8.26     0.162 A 
HETATM   26  C2  GNP A 200      -3.904  39.642  20.818  1.00  9.86     0.772 A 
HETATM   27  N1  GNP A 200      -3.545  38.239  20.481  1.00 10.22    -0.029 NA
HETATM   28  N2  GNP A 200      -5.081  39.634  21.353  1.00 11.49     0.062 N 
HETATM   29  C6  GNP A 200      -2.352  38.033  19.931  1.00 10.19     0.251 A 
HETATM   30  O6  GNP A 200      -2.011  36.747  19.653  1.00 11.17    -0.167 OA
HETATM   31  N7  GNP A 200      -0.250  39.211  19.125  1.00  8.86    -0.219 NA
HETATM   32  C8  GNP A 200       0.139  40.501  19.098  1.00 11.92     0.182 A 
ENDBRANCH   7  22
TORSDOF 8
ENDMDL
