MODEL 1
REMARK VINA RESULT:      -6.5      0.000      0.000
REMARK  8 active torsions:
REMARK  status: ('A' for Active; 'I' for Inactive)
REMARK    1  A    between atoms: PA_1  and  O5'_5 
REMARK    2  A    between atoms: PA_1  and  O3A_24 
REMARK    3  A    between atoms: PB_2  and  N3B_23 
REMARK    4  A    between atoms: PB_2  and  O3A_24 
REMARK    5  A    between atoms: PG_3  and  N3B_23 
REMARK    6  A    between atoms: C5'_4  and  O5'_5 
REMARK    7  A    between atoms: C5'_4  and  C4'_6 
REMARK    8  A    between atoms: C1'_12  and  N9_32 
ROOT
HETATM    1  C4' GNP A 200       7.423  25.292  21.637  1.00 11.60     0.181 C 
HETATM    2  O4' GNP A 200       8.375  26.327  22.041  1.00 10.96    -0.331 OA
HETATM    3  C3' GNP A 200       8.251  24.012  21.444  1.00 12.08     0.216 C 
HETATM    4  O3' GNP A 200       8.706  23.981  20.068  1.00 14.40    -0.218 OA
HETATM    5  C2' GNP A 200       9.466  24.251  22.394  1.00 12.17     0.234 C 
HETATM    6  O2' GNP A 200      10.713  23.628  21.980  1.00 13.60    -0.216 OA
HETATM    7  C1' GNP A 200       9.702  25.767  22.233  1.00 11.60     0.241 C 
ENDROOT
BRANCH   1   8
HETATM    8  C5' GNP A 200       6.325  25.155  22.612  1.00 10.62     0.187 C 
BRANCH   8   9
HETATM    9  O5' GNP A 200       5.043  25.483  22.027  1.00  9.72    -0.268 OA
BRANCH   9  10
HETATM   10  PA  GNP A 200       4.126  26.528  22.662  1.00 10.32     0.418 P 
HETATM   11  O1A GNP A 200       4.706  27.930  22.447  1.00  9.87    -0.624 OA
HETATM   12  O2A GNP A 200       3.728  26.117  24.065  1.00 11.09    -0.624 OA
BRANCH  10  13
HETATM   13  O3A GNP A 200       2.736  26.372  21.717  1.00  9.21    -0.185 OA
BRANCH  13  14
HETATM   14  PB  GNP A 200       1.710  25.207  21.714  1.00  8.42     0.401 P 
HETATM   15  O1B GNP A 200       0.660  25.697  22.629  1.00  8.14    -0.628 OA
HETATM   16  O2B GNP A 200       2.342  23.969  22.027  1.00  8.71    -0.628 OA
BRANCH  14  17
HETATM   17  N3B GNP A 200       1.060  25.217  20.071  1.00  9.58    -0.091 NA
BRANCH  17  18
HETATM   18  PG  GNP A 200       0.439  23.916  19.343  1.00  9.51     0.404 P 
HETATM   19  O1G GNP A 200       1.143  22.655  19.904  1.00 10.72    -0.621 OA
HETATM   20  O2G GNP A 200       0.549  24.041  17.942  1.00 10.01    -0.621 OA
HETATM   21  O3G GNP A 200      -1.045  23.953  19.798  1.00 11.72    -0.621 OA
ENDBRANCH  17  18
ENDBRANCH  14  17
ENDBRANCH  13  14
ENDBRANCH  10  13
ENDBRANCH   9  10
ENDBRANCH   8   9
ENDBRANCH   1   8
BRANCH   7  22
HETATM   22  N9  GNP A 200      10.340  26.502  23.382  1.00  9.54    -0.269 N 
HETATM   23  C4  GNP A 200      11.625  26.671  23.574  1.00  9.54     0.187 A 
HETATM   24  N3  GNP A 200      12.658  26.307  22.841  1.00 10.76    -0.039 NA
HETATM   25  C5  GNP A 200      11.630  27.326  24.829  1.00  8.26     0.162 A 
HETATM   26  C2  GNP A 200      13.802  26.581  23.218  1.00  9.86     0.772 A 
HETATM   27  N1  GNP A 200      14.035  27.300  24.498  1.00 10.22    -0.029 NA
HETATM   28  N2  GNP A 200      14.954  26.345  22.679  1.00 11.49     0.062 N 
HETATM   29  C6  GNP A 200      12.964  27.621  25.217  1.00 10.19     0.251 A 
HETATM   30  O6  GNP A 200      13.179  28.249  26.403  1.00 11.17    -0.167 OA
HETATM   31  N7  GNP A 200      10.425  27.501  25.257  1.00  8.86    -0.219 NA
HETATM   32  C8  GNP A 200       9.507  26.995  24.410  1.00 11.92     0.182 A 
ENDBRANCH   7  22
TORSDOF 8
ENDMDL
