MODEL 1
REMARK VINA RESULT:     -11.1      0.000      0.000
REMARK  8 active torsions:
REMARK  status: ('A' for Active; 'I' for Inactive)
REMARK    1  A    between atoms: PA_1  and  O5'_5 
REMARK    2  A    between atoms: PA_1  and  O3A_24 
REMARK    3  A    between atoms: PB_2  and  N3B_23 
REMARK    4  A    between atoms: PB_2  and  O3A_24 
REMARK    5  A    between atoms: PG_3  and  N3B_23 
REMARK    6  A    between atoms: C5'_4  and  O5'_5 
REMARK    7  A    between atoms: C5'_4  and  C4'_6 
REMARK    8  A    between atoms: C1'_12  and  N9_32 
ROOT
HETATM    1  C4' GNP A 200      -0.048  44.555  18.769  1.00 11.60     0.181 C 
HETATM    2  O4' GNP A 200      -0.861  43.346  18.634  1.00 10.96    -0.331 OA
HETATM    3  C3' GNP A 200       0.153  44.759  20.279  1.00 12.08     0.216 C 
HETATM    4  O3' GNP A 200      -0.944  45.571  20.769  1.00 14.40    -0.218 OA
HETATM    5  C2' GNP A 200       0.023  43.307  20.835  1.00 12.17     0.234 C 
HETATM    6  O2' GNP A 200      -0.507  43.202  22.186  1.00 13.60    -0.216 OA
HETATM    7  C1' GNP A 200      -1.077  42.717  19.926  1.00 11.60     0.241 C 
ENDROOT
BRANCH   1   8
HETATM    8  C5' GNP A 200       1.209  44.452  18.005  1.00 10.62     0.187 C 
BRANCH   8   9
HETATM    9  O5' GNP A 200       2.123  43.503  18.601  1.00  9.72    -0.268 OA
BRANCH   9  10
HETATM   10  PA  GNP A 200       3.527  43.291  18.035  1.00 10.32     0.418 P 
HETATM   11  O1A GNP A 200       3.965  41.840  18.253  1.00  9.87    -0.624 OA
HETATM   12  O2A GNP A 200       4.460  44.402  18.474  1.00 11.09    -0.624 OA
BRANCH  10  13
HETATM   13  O3A GNP A 200       3.263  43.529  16.385  1.00  9.21    -0.185 OA
BRANCH  13  14
HETATM   14  PB  GNP A 200       4.322  43.719  15.265  1.00  8.42     0.401 P 
HETATM   15  O1B GNP A 200       3.593  43.295  14.054  1.00  8.14    -0.628 OA
HETATM   16  O2B GNP A 200       5.532  43.038  15.587  1.00  8.71    -0.628 OA
BRANCH  14  17
HETATM   17  N3B GNP A 200       4.552  45.469  15.190  1.00  9.58    -0.091 NA
BRANCH  17  18
HETATM   18  PG  GNP A 200       5.765  46.182  14.396  1.00  9.51     0.404 P 
HETATM   19  O1G GNP A 200       5.836  45.586  12.968  1.00 10.72    -0.621 OA
HETATM   20  O2G GNP A 200       6.968  46.046  15.119  1.00 10.01    -0.621 OA
HETATM   21  O3G GNP A 200       5.304  47.664  14.340  1.00 11.72    -0.621 OA
ENDBRANCH  17  18
ENDBRANCH  14  17
ENDBRANCH  13  14
ENDBRANCH  10  13
ENDBRANCH   9  10
ENDBRANCH   8   9
ENDBRANCH   1   8
BRANCH   7  22
HETATM   22  N9  GNP A 200      -1.078  41.227  19.707  1.00  9.54    -0.269 N 
HETATM   23  C4  GNP A 200      -2.028  40.395  20.057  1.00  9.54     0.187 A 
HETATM   24  N3  GNP A 200      -3.196  40.616  20.624  1.00 10.76    -0.039 NA
HETATM   25  C5  GNP A 200      -1.448  39.154  19.701  1.00  8.26     0.162 A 
HETATM   26  C2  GNP A 200      -3.950  39.666  20.862  1.00  9.86     0.772 A 
HETATM   27  N1  GNP A 200      -3.550  38.272  20.535  1.00 10.22    -0.029 NA
HETATM   28  N2  GNP A 200      -5.129  39.628  21.392  1.00 11.49     0.062 N 
HETATM   29  C6  GNP A 200      -2.350  38.096  19.991  1.00 10.19     0.251 A 
HETATM   30  O6  GNP A 200      -1.972  36.818  19.723  1.00 11.17    -0.167 OA
HETATM   31  N7  GNP A 200      -0.278  39.327  19.185  1.00  8.86    -0.219 NA
HETATM   32  C8  GNP A 200       0.074  40.628  19.152  1.00 11.92     0.182 A 
ENDBRANCH   7  22
TORSDOF 8
ENDMDL
