MODEL 1
REMARK VINA RESULT:     -10.8      0.000      0.000
REMARK  8 active torsions:
REMARK  status: ('A' for Active; 'I' for Inactive)
REMARK    1  A    between atoms: PA_1  and  O5'_5 
REMARK    2  A    between atoms: PA_1  and  O3A_24 
REMARK    3  A    between atoms: PB_2  and  N3B_23 
REMARK    4  A    between atoms: PB_2  and  O3A_24 
REMARK    5  A    between atoms: PG_3  and  N3B_23 
REMARK    6  A    between atoms: C5'_4  and  O5'_5 
REMARK    7  A    between atoms: C5'_4  and  C4'_6 
REMARK    8  A    between atoms: C1'_12  and  N9_32 
ROOT
HETATM    1  C4' GNP A 200      -0.067  44.728  18.806  1.00 11.60     0.181 C 
HETATM    2  O4' GNP A 200      -0.828  43.490  18.633  1.00 10.96    -0.331 OA
HETATM    3  C3' GNP A 200       0.098  44.911  20.323  1.00 12.08     0.216 C 
HETATM    4  O3' GNP A 200      -1.040  45.667  20.807  1.00 14.40    -0.218 OA
HETATM    5  C2' GNP A 200       0.016  43.443  20.849  1.00 12.17     0.234 C 
HETATM    6  O2' GNP A 200      -0.533  43.290  22.187  1.00 13.60    -0.216 OA
HETATM    7  C1' GNP A 200      -1.041  42.827  19.908  1.00 11.60     0.241 C 
ENDROOT
BRANCH   1   8
HETATM    8  C5' GNP A 200       1.207  44.691  18.064  1.00 10.62     0.187 C 
BRANCH   8   9
HETATM    9  O5' GNP A 200       2.034  43.577  18.474  1.00  9.72    -0.268 OA
BRANCH   9  10
HETATM   10  PA  GNP A 200       3.452  43.402  17.931  1.00 10.32     0.418 P 
HETATM   11  O1A GNP A 200       3.932  41.969  18.179  1.00  9.87    -0.624 OA
HETATM   12  O2A GNP A 200       4.343  44.549  18.366  1.00 11.09    -0.624 OA
BRANCH  10  13
HETATM   13  O3A GNP A 200       3.205  43.605  16.274  1.00  9.21    -0.185 OA
BRANCH  13  14
HETATM   14  PB  GNP A 200       4.273  43.656  15.148  1.00  8.42     0.401 P 
HETATM   15  O1B GNP A 200       3.570  43.040  14.005  1.00  8.14    -0.628 OA
HETATM   16  O2B GNP A 200       5.496  43.062  15.576  1.00  8.71    -0.628 OA
BRANCH  14  17
HETATM   17  N3B GNP A 200       4.461  45.381  14.818  1.00  9.58    -0.091 NA
BRANCH  17  18
HETATM   18  PG  GNP A 200       5.835  46.052  14.296  1.00  9.51     0.404 P 
HETATM   19  O1G GNP A 200       5.541  47.513  13.875  1.00 10.72    -0.621 OA
HETATM   20  O2G GNP A 200       6.395  45.274  13.261  1.00 10.01    -0.621 OA
HETATM   21  O3G GNP A 200       6.726  46.024  15.567  1.00 11.72    -0.621 OA
ENDBRANCH  17  18
ENDBRANCH  14  17
ENDBRANCH  13  14
ENDBRANCH  10  13
ENDBRANCH   9  10
ENDBRANCH   8   9
ENDBRANCH   1   8
BRANCH   7  22
HETATM   22  N9  GNP A 200      -0.977  41.343  19.662  1.00  9.54    -0.269 N 
HETATM   23  C4  GNP A 200      -1.889  40.464  19.996  1.00  9.54     0.187 A 
HETATM   24  N3  GNP A 200      -3.065  40.623  20.569  1.00 10.76    -0.039 NA
HETATM   25  C5  GNP A 200      -1.257  39.256  19.617  1.00  8.26     0.162 A 
HETATM   26  C2  GNP A 200      -3.776  39.636  20.789  1.00  9.86     0.772 A 
HETATM   27  N1  GNP A 200      -3.317  38.267  20.436  1.00 10.22    -0.029 NA
HETATM   28  N2  GNP A 200      -4.951  39.537  21.320  1.00 11.49     0.062 N 
HETATM   29  C6  GNP A 200      -2.111  38.155  19.887  1.00 10.19     0.251 A 
HETATM   30  O6  GNP A 200      -1.677  36.900  19.595  1.00 11.17    -0.167 OA
HETATM   31  N7  GNP A 200      -0.096  39.490  19.103  1.00  8.86    -0.219 NA
HETATM   32  C8  GNP A 200       0.199  40.806  19.094  1.00 11.92     0.182 A 
ENDBRANCH   7  22
TORSDOF 8
ENDMDL
