MODEL 1
REMARK VINA RESULT:      -9.1      0.000      0.000
REMARK  7 active torsions:
REMARK  status: ('A' for Active; 'I' for Inactive)
REMARK    1  A    between atoms: S_1  and  N_6 
REMARK    2  A    between atoms: S_1  and  C_18 
REMARK    3  A    between atoms: O_4  and  C_23 
REMARK    4  A    between atoms: O_4  and  C_34 
REMARK    5  A    between atoms: C_21  and  C_24 
REMARK    6  A    between atoms: C_28  and  C_29 
REMARK    7  A    between atoms: C_29  and  C_31 
ROOT
HETATM    1  C   UNL N   1     -20.857 -22.504 -13.595  0.00  0.00     0.075 A 
HETATM    2  C   UNL N   1     -22.247 -22.579 -13.581  0.00  0.00     0.042 A 
HETATM    3  C   UNL N   1     -22.885 -23.694 -13.040  0.00  0.00     0.043 A 
HETATM    4  C   UNL N   1     -20.089 -23.545 -13.064  0.00  0.00     0.027 A 
HETATM    5  C   UNL N   1     -22.127 -24.727 -12.464  0.00  0.00     0.082 A 
HETATM    6  C   UNL N   1     -20.720 -24.653 -12.490  0.00  0.00     0.039 A 
ENDROOT
BRANCH   3   7
HETATM    7  C   UNL N   1     -24.351 -23.743 -13.006  0.00  0.00     0.121 A 
HETATM    8  N   UNL N   1     -25.079 -22.610 -12.711  0.00  0.00    -0.307 N 
HETATM    9  C   UNL N   1     -26.455 -22.662 -12.620  0.00  0.00     0.277 A 
HETATM   10  H   UNL N   1     -24.584 -21.711 -12.514  0.00  0.00     0.170 HD
HETATM   11  O   UNL N   1     -27.096 -21.669 -12.324  0.00  0.00    -0.265 OA
HETATM   12  C   UNL N   1     -27.077 -23.877 -12.881  0.00  0.00     0.147 A 
HETATM   13  N   UNL N   1     -28.379 -24.232 -12.882  0.00  0.00    -0.289 N 
HETATM   14  C   UNL N   1     -26.334 -24.954 -13.211  0.00  0.00     0.092 A 
HETATM   15  N   UNL N   1     -28.471 -25.515 -13.226  0.00  0.00    -0.300 N 
HETATM   16  C   UNL N   1     -29.523 -23.384 -12.569  0.00  0.00     0.178 C 
HETATM   17  C   UNL N   1     -27.215 -25.978 -13.448  0.00  0.00     0.055 A 
ATOM     18  HN  UNL N   1     -29.334 -26.053 -13.308  1.00  0.00     0.187 HD
HETATM   19  N   UNL N   1     -24.984 -24.928 -13.256  0.00  0.00    -0.338 N 
ATOM     20  HN  UNL N   1     -24.452 -25.770 -13.472  1.00  0.00     0.167 HD
BRANCH  17  21
HETATM   21  C   UNL N   1     -26.877 -27.363 -13.912  0.00  0.00     0.061 C 
BRANCH  21  22
HETATM   22  C   UNL N   1     -26.849 -27.467 -15.437  0.00  0.00     0.002 C 
HETATM   23  C   UNL N   1     -25.442 -27.201 -15.981  0.00  0.00     0.005 C 
ENDBRANCH  21  22
ENDBRANCH  17  21
ENDBRANCH   3   7
BRANCH   5  24
HETATM   24  O   UNL N   1     -22.779 -25.717 -11.806  0.00  0.00    -0.351 OA
BRANCH  24  25
HETATM   25  C   UNL N   1     -22.521 -27.056 -12.030  0.00  0.00     0.171 C 
HETATM   26  C   UNL N   1     -23.834 -27.793 -12.243  0.00  0.00     0.034 C 
ENDBRANCH  24  25
ENDBRANCH   5  24
BRANCH   1  27
HETATM   27  S   UNL N   1     -20.082 -21.017 -14.199  0.00  0.00     0.243 S 
HETATM   28  O   UNL N   1     -20.878 -19.726 -13.946  0.00  0.00    -0.206 OA
HETATM   29  O   UNL N   1     -18.733 -20.714 -13.529  0.00  0.00    -0.206 OA
BRANCH  27  30
HETATM   30  N   UNL N   1     -19.739 -21.055 -15.942  0.00  0.00    -0.203 NA
HETATM   31  C   UNL N   1     -20.944 -21.514 -16.651  0.00  0.00     0.135 C 
HETATM   32  C   UNL N   1     -20.662 -21.595 -18.156  0.00  0.00     0.250 C 
HETATM   33  N   UNL N   1     -19.540 -22.520 -18.421  0.00  0.00    -0.073 N 
HETATM   34  C   UNL N   1     -18.333 -22.086 -17.684  0.00  0.00     0.250 C 
HETATM   35  C   UNL N   1     -19.260 -22.579 -19.863  0.00  0.00     0.269 C 
HETATM   36  H   UNL N   1     -19.807 -23.483 -18.103  0.00  0.00     0.279 HD
HETATM   37  C   UNL N   1     -18.630 -21.997 -16.184  0.00  0.00     0.135 C 
ENDBRANCH  27  30
ENDBRANCH   1  27
TORSDOF 7
ENDMDL
MODEL 2
REMARK VINA RESULT:      -9.1      3.054      8.144
REMARK  7 active torsions:
REMARK  status: ('A' for Active; 'I' for Inactive)
REMARK    1  A    between atoms: S_1  and  N_6 
REMARK    2  A    between atoms: S_1  and  C_18 
REMARK    3  A    between atoms: O_4  and  C_23 
REMARK    4  A    between atoms: O_4  and  C_34 
REMARK    5  A    between atoms: C_21  and  C_24 
REMARK    6  A    between atoms: C_28  and  C_29 
REMARK    7  A    between atoms: C_29  and  C_31 
ROOT
HETATM    1  C   UNL N   1     -26.370 -23.770 -12.076  0.00  0.00     0.075 A 
HETATM    2  C   UNL N   1     -25.478 -22.921 -12.725  0.00  0.00     0.042 A 
HETATM    3  C   UNL N   1     -24.189 -23.355 -13.029  0.00  0.00     0.043 A 
HETATM    4  C   UNL N   1     -25.982 -25.068 -11.727  0.00  0.00     0.027 A 
HETATM    5  C   UNL N   1     -23.800 -24.670 -12.723  0.00  0.00     0.082 A 
HETATM    6  C   UNL N   1     -24.702 -25.524 -12.056  0.00  0.00     0.039 A 
ENDROOT
BRANCH   3   7
HETATM    7  C   UNL N   1     -23.272 -22.459 -13.740  0.00  0.00     0.121 A 
HETATM    8  N   UNL N   1     -23.720 -21.705 -14.804  0.00  0.00    -0.307 N 
HETATM    9  C   UNL N   1     -22.850 -20.902 -15.514  0.00  0.00     0.277 A 
HETATM   10  H   UNL N   1     -24.719 -21.772 -15.103  0.00  0.00     0.170 HD
HETATM   11  O   UNL N   1     -23.239 -20.264 -16.477  0.00  0.00    -0.265 OA
HETATM   12  C   UNL N   1     -21.528 -20.846 -15.091  0.00  0.00     0.147 A 
HETATM   13  N   UNL N   1     -20.467 -20.160 -15.564  0.00  0.00    -0.289 N 
HETATM   14  C   UNL N   1     -21.136 -21.564 -14.017  0.00  0.00     0.092 A 
HETATM   15  N   UNL N   1     -19.412 -20.419 -14.793  0.00  0.00    -0.300 N 
HETATM   16  C   UNL N   1     -20.437 -19.271 -16.719  0.00  0.00     0.178 C 
HETATM   17  C   UNL N   1     -19.809 -21.277 -13.819  0.00  0.00     0.055 A 
ATOM     18  HN  UNL N   1     -18.473 -20.040 -14.915  1.00  0.00     0.187 HD
HETATM   19  N   UNL N   1     -21.966 -22.389 -13.344  0.00  0.00    -0.338 N 
ATOM     20  HN  UNL N   1     -21.627 -22.945 -12.560  1.00  0.00     0.167 HD
BRANCH  17  21
HETATM   21  C   UNL N   1     -18.939 -21.778 -12.706  0.00  0.00     0.061 C 
BRANCH  21  22
HETATM   22  C   UNL N   1     -18.258 -20.636 -11.952  0.00  0.00     0.002 C 
HETATM   23  C   UNL N   1     -19.281 -19.800 -11.176  0.00  0.00     0.005 C 
ENDBRANCH  21  22
ENDBRANCH  17  21
ENDBRANCH   3   7
BRANCH   5  24
HETATM   24  O   UNL N   1     -22.599 -25.110 -13.173  0.00  0.00    -0.351 OA
BRANCH  24  25
HETATM   25  C   UNL N   1     -21.700 -25.779 -12.365  0.00  0.00     0.171 C 
HETATM   26  C   UNL N   1     -20.290 -25.305 -12.681  0.00  0.00     0.034 C 
ENDBRANCH  24  25
ENDBRANCH   5  24
BRANCH   1  27
HETATM   27  S   UNL N   1     -28.041 -23.214 -11.801  0.00  0.00     0.243 S 
HETATM   28  O   UNL N   1     -29.068 -24.338 -11.586  0.00  0.00    -0.206 OA
HETATM   29  O   UNL N   1     -28.203 -22.366 -10.529  0.00  0.00    -0.206 OA
BRANCH  27  30
HETATM   30  N   UNL N   1     -28.677 -22.205 -13.118  0.00  0.00    -0.203 NA
HETATM   31  C   UNL N   1     -28.968 -20.863 -12.586  0.00  0.00     0.135 C 
HETATM   32  C   UNL N   1     -29.558 -19.983 -13.694  0.00  0.00     0.250 C 
HETATM   33  N   UNL N   1     -30.794 -20.589 -14.231  0.00  0.00    -0.073 N 
HETATM   34  C   UNL N   1     -30.518 -21.952 -14.736  0.00  0.00     0.250 C 
HETATM   35  C   UNL N   1     -31.344 -19.751 -15.308  0.00  0.00     0.269 C 
HETATM   36  H   UNL N   1     -31.509 -20.645 -13.466  0.00  0.00     0.279 HD
HETATM   37  C   UNL N   1     -29.919 -22.819 -13.624  0.00  0.00     0.135 C 
ENDBRANCH  27  30
ENDBRANCH   1  27
TORSDOF 7
ENDMDL
MODEL 3
REMARK VINA RESULT:      -8.6      2.714      7.713
REMARK  7 active torsions:
REMARK  status: ('A' for Active; 'I' for Inactive)
REMARK    1  A    between atoms: S_1  and  N_6 
REMARK    2  A    between atoms: S_1  and  C_18 
REMARK    3  A    between atoms: O_4  and  C_23 
REMARK    4  A    between atoms: O_4  and  C_34 
REMARK    5  A    between atoms: C_21  and  C_24 
REMARK    6  A    between atoms: C_28  and  C_29 
REMARK    7  A    between atoms: C_29  and  C_31 
ROOT
HETATM    1  C   UNL N   1     -26.026 -24.578 -12.385  0.00  0.00     0.075 A 
HETATM    2  C   UNL N   1     -25.241 -23.670 -13.090  0.00  0.00     0.042 A 
HETATM    3  C   UNL N   1     -23.889 -23.929 -13.307  0.00  0.00     0.043 A 
HETATM    4  C   UNL N   1     -25.465 -25.759 -11.890  0.00  0.00     0.027 A 
HETATM    5  C   UNL N   1     -23.323 -25.132 -12.852  0.00  0.00     0.082 A 
HETATM    6  C   UNL N   1     -24.118 -26.044 -12.129  0.00  0.00     0.039 A 
ENDROOT
BRANCH   3   7
HETATM    7  C   UNL N   1     -23.084 -22.977 -14.078  0.00  0.00     0.121 A 
HETATM    8  N   UNL N   1     -23.367 -21.629 -14.034  0.00  0.00    -0.307 N 
HETATM    9  C   UNL N   1     -22.650 -20.733 -14.801  0.00  0.00     0.277 A 
HETATM   10  H   UNL N   1     -24.159 -21.283 -13.445  0.00  0.00     0.170 HD
HETATM   11  O   UNL N   1     -22.925 -19.546 -14.789  0.00  0.00    -0.265 OA
HETATM   12  C   UNL N   1     -21.611 -21.231 -15.577  0.00  0.00     0.147 A 
HETATM   13  N   UNL N   1     -20.742 -20.616 -16.407  0.00  0.00    -0.289 N 
HETATM   14  C   UNL N   1     -21.333 -22.552 -15.560  0.00  0.00     0.092 A 
HETATM   15  N   UNL N   1     -19.906 -21.528 -16.902  0.00  0.00    -0.300 N 
HETATM   16  C   UNL N   1     -20.689 -19.196 -16.733  0.00  0.00     0.178 C 
HETATM   17  C   UNL N   1     -20.248 -22.733 -16.378  0.00  0.00     0.055 A 
ATOM     18  HN  UNL N   1     -19.146 -21.351 -17.558  1.00  0.00     0.187 HD
HETATM   19  N   UNL N   1     -22.058 -23.444 -14.851  0.00  0.00    -0.338 N 
ATOM     20  HN  UNL N   1     -21.844 -24.440 -14.890  1.00  0.00     0.167 HD
BRANCH  17  21
HETATM   21  C   UNL N   1     -19.521 -24.020 -16.633  0.00  0.00     0.061 C 
BRANCH  21  22
HETATM   22  C   UNL N   1     -18.942 -24.615 -15.350  0.00  0.00     0.002 C 
HETATM   23  C   UNL N   1     -17.418 -24.467 -15.312  0.00  0.00     0.005 C 
ENDBRANCH  21  22
ENDBRANCH  17  21
ENDBRANCH   3   7
BRANCH   5  24
HETATM   24  O   UNL N   1     -22.050 -25.425 -13.217  0.00  0.00    -0.351 OA
BRANCH  24  25
HETATM   25  C   UNL N   1     -21.061 -25.720 -12.297  0.00  0.00     0.171 C 
HETATM   26  C   UNL N   1     -20.365 -24.436 -11.877  0.00  0.00     0.034 C 
ENDBRANCH  24  25
ENDBRANCH   5  24
BRANCH   1  27
HETATM   27  S   UNL N   1     -27.772 -24.260 -12.222  0.00  0.00     0.243 S 
HETATM   28  O   UNL N   1     -28.680 -25.454 -12.557  0.00  0.00    -0.206 OA
HETATM   29  O   UNL N   1     -28.200 -23.907 -10.788  0.00  0.00    -0.206 OA
BRANCH  27  30
HETATM   30  N   UNL N   1     -28.342 -22.907 -13.224  0.00  0.00    -0.203 NA
HETATM   31  C   UNL N   1     -27.907 -21.645 -12.605  0.00  0.00     0.135 C 
HETATM   32  C   UNL N   1     -28.421 -20.458 -13.428  0.00  0.00     0.250 C 
HETATM   33  N   UNL N   1     -29.896 -20.492 -13.516  0.00  0.00    -0.073 N 
HETATM   34  C   UNL N   1     -30.345 -21.773 -14.105  0.00  0.00     0.250 C 
HETATM   35  C   UNL N   1     -30.383 -19.364 -14.324  0.00  0.00     0.269 C 
HETATM   36  H   UNL N   1     -30.299 -20.398 -12.552  0.00  0.00     0.279 HD
HETATM   37  C   UNL N   1     -29.815 -22.951 -13.281  0.00  0.00     0.135 C 
ENDBRANCH  27  30
ENDBRANCH   1  27
TORSDOF 7
ENDMDL
MODEL 4
REMARK VINA RESULT:      -8.2      2.617      8.568
REMARK  7 active torsions:
REMARK  status: ('A' for Active; 'I' for Inactive)
REMARK    1  A    between atoms: S_1  and  N_6 
REMARK    2  A    between atoms: S_1  and  C_18 
REMARK    3  A    between atoms: O_4  and  C_23 
REMARK    4  A    between atoms: O_4  and  C_34 
REMARK    5  A    between atoms: C_21  and  C_24 
REMARK    6  A    between atoms: C_28  and  C_29 
REMARK    7  A    between atoms: C_29  and  C_31 
ROOT
HETATM    1  C   UNL N   1     -24.379 -22.661 -13.648  0.00  0.00     0.075 A 
HETATM    2  C   UNL N   1     -23.231 -23.346 -14.039  0.00  0.00     0.042 A 
HETATM    3  C   UNL N   1     -22.277 -22.719 -14.839  0.00  0.00     0.043 A 
HETATM    4  C   UNL N   1     -24.582 -21.337 -14.051  0.00  0.00     0.027 A 
HETATM    5  C   UNL N   1     -22.449 -21.376 -15.215  0.00  0.00     0.082 A 
HETATM    6  C   UNL N   1     -23.616 -20.689 -14.826  0.00  0.00     0.039 A 
ENDROOT
BRANCH   3   7
HETATM    7  C   UNL N   1     -21.060 -23.444 -15.216  0.00  0.00     0.121 A 
HETATM    8  N   UNL N   1     -20.445 -24.289 -14.317  0.00  0.00    -0.307 N 
HETATM    9  C   UNL N   1     -19.268 -24.930 -14.645  0.00  0.00     0.277 A 
HETATM   10  H   UNL N   1     -20.851 -24.414 -13.362  0.00  0.00     0.170 HD
HETATM   11  O   UNL N   1     -18.706 -25.648 -13.837  0.00  0.00    -0.265 OA
HETATM   12  C   UNL N   1     -18.755 -24.732 -15.921  0.00  0.00     0.147 A 
HETATM   13  N   UNL N   1     -17.652 -25.219 -16.526  0.00  0.00    -0.289 N 
HETATM   14  C   UNL N   1     -19.410 -23.933 -16.790  0.00  0.00     0.092 A 
HETATM   15  N   UNL N   1     -17.609 -24.754 -17.774  0.00  0.00    -0.300 N 
HETATM   16  C   UNL N   1     -16.652 -26.110 -15.950  0.00  0.00     0.178 C 
HETATM   17  C   UNL N   1     -18.697 -23.965 -17.962  0.00  0.00     0.055 A 
ATOM     18  HN  UNL N   1     -16.885 -24.955 -18.464  1.00  0.00     0.187 HD
HETATM   19  N   UNL N   1     -20.536 -23.262 -16.465  0.00  0.00    -0.338 N 
ATOM     20  HN  UNL N   1     -20.984 -22.637 -17.135  1.00  0.00     0.167 HD
BRANCH  17  21
HETATM   21  C   UNL N   1     -19.058 -23.289 -19.251  0.00  0.00     0.061 C 
BRANCH  21  22
HETATM   22  C   UNL N   1     -17.915 -22.429 -19.788  0.00  0.00     0.002 C 
HETATM   23  C   UNL N   1     -17.459 -21.405 -18.745  0.00  0.00     0.005 C 
ENDBRANCH  21  22
ENDBRANCH  17  21
ENDBRANCH   3   7
BRANCH   5  24
HETATM   24  O   UNL N   1     -21.430 -20.750 -15.855  0.00  0.00    -0.351 OA
BRANCH  24  25
HETATM   25  C   UNL N   1     -21.568 -19.500 -16.429  0.00  0.00     0.171 C 
HETATM   26  C   UNL N   1     -20.588 -18.537 -15.777  0.00  0.00     0.034 C 
ENDBRANCH  24  25
ENDBRANCH   5  24
BRANCH   1  27
HETATM   27  S   UNL N   1     -25.522 -23.462 -12.539  0.00  0.00     0.243 S 
HETATM   28  O   UNL N   1     -25.061 -23.527 -11.074  0.00  0.00    -0.206 OA
HETATM   29  O   UNL N   1     -26.876 -22.743 -12.432  0.00  0.00    -0.206 OA
BRANCH  27  30
HETATM   30  N   UNL N   1     -25.916 -25.129 -13.011  0.00  0.00    -0.203 NA
HETATM   31  C   UNL N   1     -27.373 -25.314 -12.921  0.00  0.00     0.135 C 
HETATM   32  C   UNL N   1     -27.736 -26.759 -13.284  0.00  0.00     0.250 C 
HETATM   33  N   UNL N   1     -27.052 -27.705 -12.379  0.00  0.00    -0.073 N 
HETATM   34  C   UNL N   1     -25.588 -27.503 -12.437  0.00  0.00     0.250 C 
HETATM   35  C   UNL N   1     -27.388 -29.090 -12.744  0.00  0.00     0.269 C 
HETATM   36  H   UNL N   1     -27.382 -27.540 -11.397  0.00  0.00     0.279 HD
HETATM   37  C   UNL N   1     -25.238 -26.054 -12.084  0.00  0.00     0.135 C 
ENDBRANCH  27  30
ENDBRANCH   1  27
TORSDOF 7
ENDMDL
MODEL 5
REMARK VINA RESULT:      -8.2      2.579      8.186
REMARK  7 active torsions:
REMARK  status: ('A' for Active; 'I' for Inactive)
REMARK    1  A    between atoms: S_1  and  N_6 
REMARK    2  A    between atoms: S_1  and  C_18 
REMARK    3  A    between atoms: O_4  and  C_23 
REMARK    4  A    between atoms: O_4  and  C_34 
REMARK    5  A    between atoms: C_21  and  C_24 
REMARK    6  A    between atoms: C_28  and  C_29 
REMARK    7  A    between atoms: C_29  and  C_31 
ROOT
HETATM    1  C   UNL N   1     -24.112 -23.304 -13.033  0.00  0.00     0.075 A 
HETATM    2  C   UNL N   1     -22.725 -23.180 -13.051  0.00  0.00     0.042 A 
HETATM    3  C   UNL N   1     -22.123 -22.119 -13.724  0.00  0.00     0.043 A 
HETATM    4  C   UNL N   1     -24.913 -22.362 -13.687  0.00  0.00     0.027 A 
HETATM    5  C   UNL N   1     -22.917 -21.142 -14.349  0.00  0.00     0.082 A 
HETATM    6  C   UNL N   1     -24.320 -21.276 -14.338  0.00  0.00     0.039 A 
ENDROOT
BRANCH   3   7
HETATM    7  C   UNL N   1     -20.663 -21.986 -13.707  0.00  0.00     0.121 A 
HETATM    8  N   UNL N   1     -20.074 -20.828 -13.247  0.00  0.00    -0.307 N 
HETATM    9  C   UNL N   1     -18.703 -20.673 -13.281  0.00  0.00     0.277 A 
HETATM   10  H   UNL N   1     -20.672 -20.041 -12.906  0.00  0.00     0.170 HD
HETATM   11  O   UNL N   1     -18.185 -19.635 -12.908  0.00  0.00    -0.265 OA
HETATM   12  C   UNL N   1     -17.942 -21.738 -13.749  0.00  0.00     0.147 A 
HETATM   13  N   UNL N   1     -16.609 -21.888 -13.890  0.00  0.00    -0.289 N 
HETATM   14  C   UNL N   1     -18.551 -22.874 -14.149  0.00  0.00     0.092 A 
HETATM   15  N   UNL N   1     -16.364 -23.112 -14.356  0.00  0.00    -0.300 N 
HETATM   16  C   UNL N   1     -15.574 -20.906 -13.590  0.00  0.00     0.178 C 
HETATM   17  C   UNL N   1     -17.555 -23.744 -14.511  0.00  0.00     0.055 A 
ATOM     18  HN  UNL N   1     -15.445 -23.503 -14.561  1.00  0.00     0.187 HD
HETATM   19  N   UNL N   1     -19.894 -23.019 -14.165  0.00  0.00    -0.338 N 
ATOM     20  HN  UNL N   1     -20.322 -23.877 -14.509  1.00  0.00     0.167 HD
BRANCH  17  21
HETATM   21  C   UNL N   1     -17.724 -25.164 -14.962  0.00  0.00     0.061 C 
BRANCH  21  22
HETATM   22  C   UNL N   1     -17.199 -25.381 -16.381  0.00  0.00     0.002 C 
HETATM   23  C   UNL N   1     -18.068 -24.649 -17.408  0.00  0.00     0.005 C 
ENDBRANCH  21  22
ENDBRANCH  17  21
ENDBRANCH   3   7
BRANCH   5  24
HETATM   24  O   UNL N   1     -22.308 -20.042 -14.855  0.00  0.00    -0.351 OA
BRANCH  24  25
HETATM   25  C   UNL N   1     -22.403 -19.684 -16.187  0.00  0.00     0.171 C 
HETATM   26  C   UNL N   1     -21.766 -20.765 -17.046  0.00  0.00     0.034 C 
ENDBRANCH  24  25
ENDBRANCH   5  24
BRANCH   1  27
HETATM   27  S   UNL N   1     -24.846 -24.614 -12.073  0.00  0.00     0.243 S 
HETATM   28  O   UNL N   1     -23.967 -25.147 -10.930  0.00  0.00    -0.206 OA
HETATM   29  O   UNL N   1     -26.128 -24.190 -11.338  0.00  0.00    -0.206 OA
BRANCH  27  30
HETATM   30  N   UNL N   1     -25.311 -26.028 -13.043  0.00  0.00    -0.203 NA
HETATM   31  C   UNL N   1     -24.533 -26.020 -14.292  0.00  0.00     0.135 C 
HETATM   32  C   UNL N   1     -24.945 -27.209 -15.168  0.00  0.00     0.250 C 
HETATM   33  N   UNL N   1     -26.389 -27.147 -15.475  0.00  0.00    -0.073 N 
HETATM   34  C   UNL N   1     -27.179 -27.119 -14.224  0.00  0.00     0.250 C 
HETATM   35  C   UNL N   1     -26.783 -28.300 -16.298  0.00  0.00     0.269 C 
HETATM   36  H   UNL N   1     -26.586 -26.275 -16.024  0.00  0.00     0.279 HD
HETATM   37  C   UNL N   1     -26.750 -25.934 -13.353  0.00  0.00     0.135 C 
ENDBRANCH  27  30
ENDBRANCH   1  27
TORSDOF 7
ENDMDL
MODEL 6
REMARK VINA RESULT:      -8.1      2.872      8.064
REMARK  7 active torsions:
REMARK  status: ('A' for Active; 'I' for Inactive)
REMARK    1  A    between atoms: S_1  and  N_6 
REMARK    2  A    between atoms: S_1  and  C_18 
REMARK    3  A    between atoms: O_4  and  C_23 
REMARK    4  A    between atoms: O_4  and  C_34 
REMARK    5  A    between atoms: C_21  and  C_24 
REMARK    6  A    between atoms: C_28  and  C_29 
REMARK    7  A    between atoms: C_29  and  C_31 
ROOT
HETATM    1  C   UNL N   1     -23.551 -26.016 -12.786  0.00  0.00     0.075 A 
HETATM    2  C   UNL N   1     -23.172 -24.804 -13.357  0.00  0.00     0.042 A 
HETATM    3  C   UNL N   1     -21.835 -24.411 -13.349  0.00  0.00     0.043 A 
HETATM    4  C   UNL N   1     -22.593 -26.851 -12.203  0.00  0.00     0.027 A 
HETATM    5  C   UNL N   1     -20.857 -25.260 -12.805  0.00  0.00     0.082 A 
HETATM    6  C   UNL N   1     -21.245 -26.481 -12.219  0.00  0.00     0.039 A 
ENDROOT
BRANCH   3   7
HETATM    7  C   UNL N   1     -21.449 -23.146 -13.982  0.00  0.00     0.121 A 
HETATM    8  N   UNL N   1     -21.676 -22.942 -15.327  0.00  0.00    -0.307 N 
HETATM    9  C   UNL N   1     -21.265 -21.777 -15.941  0.00  0.00     0.277 A 
HETATM   10  H   UNL N   1     -22.129 -23.692 -15.897  0.00  0.00     0.170 HD
HETATM   11  O   UNL N   1     -21.433 -21.612 -17.137  0.00  0.00    -0.265 OA
HETATM   12  C   UNL N   1     -20.659 -20.806 -15.153  0.00  0.00     0.147 A 
HETATM   13  N   UNL N   1     -20.169 -19.586 -15.456  0.00  0.00    -0.289 N 
HETATM   14  C   UNL N   1     -20.494 -21.023 -13.831  0.00  0.00     0.092 A 
HETATM   15  N   UNL N   1     -19.713 -19.020 -14.340  0.00  0.00    -0.300 N 
HETATM   16  C   UNL N   1     -20.130 -18.955 -16.769  0.00  0.00     0.178 C 
HETATM   17  C   UNL N   1     -19.917 -19.889 -13.318  0.00  0.00     0.055 A 
ATOM     18  HN  UNL N   1     -19.285 -18.097 -14.268  1.00  0.00     0.187 HD
HETATM   19  N   UNL N   1     -20.850 -22.177 -13.227  0.00  0.00    -0.338 N 
ATOM     20  HN  UNL N   1     -20.676 -22.322 -12.233  1.00  0.00     0.167 HD
BRANCH  17  21
HETATM   21  C   UNL N   1     -19.597 -19.617 -11.879  0.00  0.00     0.061 C 
BRANCH  21  22
HETATM   22  C   UNL N   1     -18.094 -19.475 -11.642  0.00  0.00     0.002 C 
HETATM   23  C   UNL N   1     -17.340 -20.718 -12.123  0.00  0.00     0.005 C 
ENDBRANCH  21  22
ENDBRANCH  17  21
ENDBRANCH   3   7
BRANCH   5  24
HETATM   24  O   UNL N   1     -19.552 -24.922 -12.957  0.00  0.00    -0.351 OA
BRANCH  24  25
HETATM   25  C   UNL N   1     -18.784 -25.372 -14.014  0.00  0.00     0.171 C 
HETATM   26  C   UNL N   1     -17.906 -24.237 -14.517  0.00  0.00     0.034 C 
ENDBRANCH  24  25
ENDBRANCH   5  24
BRANCH   1  27
HETATM   27  S   UNL N   1     -25.253 -26.530 -12.910  0.00  0.00     0.243 S 
HETATM   28  O   UNL N   1     -25.768 -26.713 -14.347  0.00  0.00    -0.206 OA
HETATM   29  O   UNL N   1     -25.525 -27.906 -12.280  0.00  0.00    -0.206 OA
BRANCH  27  30
HETATM   30  N   UNL N   1     -26.389 -25.420 -12.113  0.00  0.00    -0.203 NA
HETATM   31  C   UNL N   1     -27.331 -24.905 -13.119  0.00  0.00     0.135 C 
HETATM   32  C   UNL N   1     -28.298 -23.911 -12.464  0.00  0.00     0.250 C 
HETATM   33  N   UNL N   1     -27.551 -22.791 -11.855  0.00  0.00    -0.073 N 
HETATM   34  C   UNL N   1     -26.576 -23.302 -10.867  0.00  0.00     0.250 C 
HETATM   35  C   UNL N   1     -28.481 -21.852 -11.211  0.00  0.00     0.269 C 
HETATM   36  H   UNL N   1     -27.036 -22.272 -12.607  0.00  0.00     0.279 HD
HETATM   37  C   UNL N   1     -25.623 -24.303 -11.529  0.00  0.00     0.135 C 
ENDBRANCH  27  30
ENDBRANCH   1  27
TORSDOF 7
ENDMDL
MODEL 7
REMARK VINA RESULT:      -7.9     19.894     23.123
REMARK  7 active torsions:
REMARK  status: ('A' for Active; 'I' for Inactive)
REMARK    1  A    between atoms: S_1  and  N_6 
REMARK    2  A    between atoms: S_1  and  C_18 
REMARK    3  A    between atoms: O_4  and  C_23 
REMARK    4  A    between atoms: O_4  and  C_34 
REMARK    5  A    between atoms: C_21  and  C_24 
REMARK    6  A    between atoms: C_28  and  C_29 
REMARK    7  A    between atoms: C_29  and  C_31 
ROOT
HETATM    1  C   UNL N   1     -41.580 -35.298 -10.441  0.00  0.00     0.075 A 
HETATM    2  C   UNL N   1     -42.634 -34.670 -11.100  0.00  0.00     0.042 A 
HETATM    3  C   UNL N   1     -42.405 -33.522 -11.855  0.00  0.00     0.043 A 
HETATM    4  C   UNL N   1     -40.283 -34.784 -10.535  0.00  0.00     0.027 A 
HETATM    5  C   UNL N   1     -41.101 -33.020 -11.993  0.00  0.00     0.082 A 
HETATM    6  C   UNL N   1     -40.038 -33.651 -11.316  0.00  0.00     0.039 A 
ENDROOT
BRANCH   3   7
HETATM    7  C   UNL N   1     -43.521 -32.890 -12.568  0.00  0.00     0.121 A 
HETATM    8  N   UNL N   1     -44.321 -33.635 -13.409  0.00  0.00    -0.307 N 
HETATM    9  C   UNL N   1     -45.337 -33.037 -14.126  0.00  0.00     0.277 A 
HETATM   10  H   UNL N   1     -44.133 -34.655 -13.536  0.00  0.00     0.170 HD
HETATM   11  O   UNL N   1     -46.020 -33.688 -14.896  0.00  0.00    -0.265 OA
HETATM   12  C   UNL N   1     -45.551 -31.677 -13.937  0.00  0.00     0.147 A 
HETATM   13  N   UNL N   1     -46.454 -30.831 -14.476  0.00  0.00    -0.289 N 
HETATM   14  C   UNL N   1     -44.776 -30.990 -13.071  0.00  0.00     0.092 A 
HETATM   15  N   UNL N   1     -46.273 -29.621 -13.949  0.00  0.00    -0.300 N 
HETATM   16  C   UNL N   1     -47.475 -31.148 -15.467  0.00  0.00     0.178 C 
HETATM   17  C   UNL N   1     -45.246 -29.701 -13.065  0.00  0.00     0.055 A 
ATOM     18  HN  UNL N   1     -46.811 -28.784 -14.172  1.00  0.00     0.187 HD
HETATM   19  N   UNL N   1     -43.749 -31.554 -12.399  0.00  0.00    -0.338 N 
ATOM     20  HN  UNL N   1     -43.160 -30.997 -11.782  1.00  0.00     0.167 HD
BRANCH  17  21
HETATM   21  C   UNL N   1     -44.755 -28.571 -12.211  0.00  0.00     0.061 C 
BRANCH  21  22
HETATM   22  C   UNL N   1     -45.646 -27.334 -12.328  0.00  0.00     0.002 C 
HETATM   23  C   UNL N   1     -46.657 -27.273 -11.180  0.00  0.00     0.005 C 
ENDBRANCH  21  22
ENDBRANCH  17  21
ENDBRANCH   3   7
BRANCH   5  24
HETATM   24  O   UNL N   1     -40.890 -32.000 -12.862  0.00  0.00    -0.351 OA
BRANCH  24  25
HETATM   25  C   UNL N   1     -40.164 -30.873 -12.525  0.00  0.00     0.171 C 
HETATM   26  C   UNL N   1     -40.873 -30.135 -11.401  0.00  0.00     0.034 C 
ENDBRANCH  24  25
ENDBRANCH   5  24
BRANCH   1  27
HETATM   27  S   UNL N   1     -41.896 -36.822  -9.572  0.00  0.00     0.243 S 
HETATM   28  O   UNL N   1     -43.309 -37.395  -9.767  0.00  0.00    -0.206 OA
HETATM   29  O   UNL N   1     -40.999 -37.984 -10.029  0.00  0.00    -0.206 OA
BRANCH  27  30
HETATM   30  N   UNL N   1     -41.645 -36.702  -7.817  0.00  0.00    -0.203 NA
HETATM   31  C   UNL N   1     -42.118 -35.385  -7.361  0.00  0.00     0.135 C 
HETATM   32  C   UNL N   1     -41.875 -35.239  -5.855  0.00  0.00     0.250 C 
HETATM   33  N   UNL N   1     -40.437 -35.391  -5.547  0.00  0.00    -0.073 N 
HETATM   34  C   UNL N   1     -39.944 -36.699  -6.033  0.00  0.00     0.250 C 
HETATM   35  C   UNL N   1     -40.212 -35.271  -4.099  0.00  0.00     0.269 C 
HETATM   36  H   UNL N   1     -39.902 -34.625  -6.023  0.00  0.00     0.279 HD
HETATM   37  C   UNL N   1     -40.203 -36.838  -7.537  0.00  0.00     0.135 C 
ENDBRANCH  27  30
ENDBRANCH   1  27
TORSDOF 7
ENDMDL
MODEL 8
REMARK VINA RESULT:      -7.8      3.034      8.794
REMARK  7 active torsions:
REMARK  status: ('A' for Active; 'I' for Inactive)
REMARK    1  A    between atoms: S_1  and  N_6 
REMARK    2  A    between atoms: S_1  and  C_18 
REMARK    3  A    between atoms: O_4  and  C_23 
REMARK    4  A    between atoms: O_4  and  C_34 
REMARK    5  A    between atoms: C_21  and  C_24 
REMARK    6  A    between atoms: C_28  and  C_29 
REMARK    7  A    between atoms: C_29  and  C_31 
ROOT
HETATM    1  C   UNL N   1     -23.945 -23.084 -13.120  0.00  0.00     0.075 A 
HETATM    2  C   UNL N   1     -22.557 -23.018 -13.202  0.00  0.00     0.042 A 
HETATM    3  C   UNL N   1     -21.944 -22.028 -13.967  0.00  0.00     0.043 A 
HETATM    4  C   UNL N   1     -24.736 -22.155 -13.803  0.00  0.00     0.027 A 
HETATM    5  C   UNL N   1     -22.726 -21.062 -14.623  0.00  0.00     0.082 A 
HETATM    6  C   UNL N   1     -24.131 -21.138 -14.547  0.00  0.00     0.039 A 
ENDROOT
BRANCH   3   7
HETATM    7  C   UNL N   1     -20.480 -21.954 -14.017  0.00  0.00     0.121 A 
HETATM    8  N   UNL N   1     -19.790 -22.510 -15.073  0.00  0.00    -0.307 N 
HETATM    9  C   UNL N   1     -18.411 -22.495 -15.099  0.00  0.00     0.277 A 
HETATM   10  H   UNL N   1     -20.314 -22.985 -15.843  0.00  0.00     0.170 HD
HETATM   11  O   UNL N   1     -17.801 -23.019 -16.015  0.00  0.00    -0.265 OA
HETATM   12  C   UNL N   1     -17.749 -21.862 -14.054  0.00  0.00     0.147 A 
HETATM   13  N   UNL N   1     -16.435 -21.678 -13.810  0.00  0.00    -0.289 N 
HETATM   14  C   UNL N   1     -18.460 -21.288 -13.060  0.00  0.00     0.092 A 
HETATM   15  N   UNL N   1     -16.304 -20.979 -12.683  0.00  0.00    -0.300 N 
HETATM   16  C   UNL N   1     -15.315 -22.144 -14.618  0.00  0.00     0.178 C 
HETATM   17  C   UNL N   1     -17.549 -20.716 -12.209  0.00  0.00     0.055 A 
ATOM     18  HN  UNL N   1     -15.424 -20.693 -12.254  1.00  0.00     0.187 HD
HETATM   19  N   UNL N   1     -19.808 -21.339 -12.999  0.00  0.00    -0.338 N 
ATOM     20  HN  UNL N   1     -20.311 -20.927 -12.214  1.00  0.00     0.167 HD
BRANCH  17  21
HETATM   21  C   UNL N   1     -17.851 -19.901 -10.987  0.00  0.00     0.061 C 
BRANCH  21  22
HETATM   22  C   UNL N   1     -17.841 -18.401 -11.281  0.00  0.00     0.002 C 
HETATM   23  C   UNL N   1     -19.237 -17.906 -11.671  0.00  0.00     0.005 C 
ENDBRANCH  21  22
ENDBRANCH  17  21
ENDBRANCH   3   7
BRANCH   5  24
HETATM   24  O   UNL N   1     -22.097 -20.023 -15.225  0.00  0.00    -0.351 OA
BRANCH  24  25
HETATM   25  C   UNL N   1     -21.951 -18.789 -14.619  0.00  0.00     0.171 C 
HETATM   26  C   UNL N   1     -22.999 -17.833 -15.166  0.00  0.00     0.034 C 
ENDBRANCH  24  25
ENDBRANCH   5  24
BRANCH   1  27
HETATM   27  S   UNL N   1     -24.687 -24.299 -12.047  0.00  0.00     0.243 S 
HETATM   28  O   UNL N   1     -23.794 -24.766 -10.887  0.00  0.00    -0.206 OA
HETATM   29  O   UNL N   1     -25.941 -23.789 -11.319  0.00  0.00    -0.206 OA
BRANCH  27  30
HETATM   30  N   UNL N   1     -25.208 -25.770 -12.897  0.00  0.00    -0.203 NA
HETATM   31  C   UNL N   1     -24.442 -25.890 -14.147  0.00  0.00     0.135 C 
HETATM   32  C   UNL N   1     -24.901 -27.131 -14.921  0.00  0.00     0.250 C 
HETATM   33  N   UNL N   1     -26.345 -27.045 -15.223  0.00  0.00    -0.073 N 
HETATM   34  C   UNL N   1     -27.122 -26.889 -13.973  0.00  0.00     0.250 C 
HETATM   35  C   UNL N   1     -26.785 -28.247 -15.947  0.00  0.00     0.269 C 
HETATM   36  H   UNL N   1     -26.518 -26.214 -15.839  0.00  0.00     0.279 HD
HETATM   37  C   UNL N   1     -26.646 -25.653 -13.203  0.00  0.00     0.135 C 
ENDBRANCH  27  30
ENDBRANCH   1  27
TORSDOF 7
ENDMDL
MODEL 9
REMARK VINA RESULT:      -7.7     20.035     23.373
REMARK  7 active torsions:
REMARK  status: ('A' for Active; 'I' for Inactive)
REMARK    1  A    between atoms: S_1  and  N_6 
REMARK    2  A    between atoms: S_1  and  C_18 
REMARK    3  A    between atoms: O_4  and  C_23 
REMARK    4  A    between atoms: O_4  and  C_34 
REMARK    5  A    between atoms: C_21  and  C_24 
REMARK    6  A    between atoms: C_28  and  C_29 
REMARK    7  A    between atoms: C_29  and  C_31 
ROOT
HETATM    1  C   UNL N   1     -44.756 -30.578 -12.730  0.00  0.00     0.075 A 
HETATM    2  C   UNL N   1     -44.642 -31.906 -12.330  0.00  0.00     0.042 A 
HETATM    3  C   UNL N   1     -43.511 -32.338 -11.640  0.00  0.00     0.043 A 
HETATM    4  C   UNL N   1     -43.739 -29.664 -12.439  0.00  0.00     0.027 A 
HETATM    5  C   UNL N   1     -42.501 -31.421 -11.304  0.00  0.00     0.082 A 
HETATM    6  C   UNL N   1     -42.615 -30.079 -11.719  0.00  0.00     0.039 A 
ENDROOT
BRANCH   3   7
HETATM    7  C   UNL N   1     -43.421 -33.734 -11.199  0.00  0.00     0.121 A 
HETATM    8  N   UNL N   1     -44.565 -34.475 -10.995  0.00  0.00    -0.307 N 
HETATM    9  C   UNL N   1     -44.489 -35.771 -10.526  0.00  0.00     0.277 A 
HETATM   10  H   UNL N   1     -45.501 -34.040 -11.158  0.00  0.00     0.170 HD
HETATM   11  O   UNL N   1     -45.502 -36.414 -10.311  0.00  0.00    -0.265 OA
HETATM   12  C   UNL N   1     -43.227 -36.311 -10.314  0.00  0.00     0.147 A 
HETATM   13  N   UNL N   1     -42.838 -37.528  -9.878  0.00  0.00    -0.289 N 
HETATM   14  C   UNL N   1     -42.128 -35.570 -10.568  0.00  0.00     0.092 A 
HETATM   15  N   UNL N   1     -41.507 -37.573  -9.872  0.00  0.00    -0.300 N 
HETATM   16  C   UNL N   1     -43.696 -38.636  -9.477  0.00  0.00     0.178 C 
HETATM   17  C   UNL N   1     -41.047 -36.373 -10.309  0.00  0.00     0.055 A 
ATOM     18  HN  UNL N   1     -40.935 -38.369  -9.587  1.00  0.00     0.187 HD
HETATM   19  N   UNL N   1     -42.190 -34.286 -10.982  0.00  0.00    -0.338 N 
ATOM     20  HN  UNL N   1     -41.340 -33.743 -11.128  1.00  0.00     0.167 HD
BRANCH  17  21
HETATM   21  C   UNL N   1     -39.602 -36.024 -10.506  0.00  0.00     0.061 C 
BRANCH  21  22
HETATM   22  C   UNL N   1     -38.688 -37.234 -10.313  0.00  0.00     0.002 C 
HETATM   23  C   UNL N   1     -37.912 -37.134  -8.997  0.00  0.00     0.005 C 
ENDBRANCH  21  22
ENDBRANCH  17  21
ENDBRANCH   3   7
BRANCH   5  24
HETATM   24  O   UNL N   1     -41.494 -31.837 -10.497  0.00  0.00    -0.351 OA
BRANCH  24  25
HETATM   25  C   UNL N   1     -40.181 -31.446 -10.682  0.00  0.00     0.171 C 
HETATM   26  C   UNL N   1     -39.642 -32.078 -11.955  0.00  0.00     0.034 C 
ENDBRANCH  24  25
ENDBRANCH   5  24
BRANCH   1  27
HETATM   27  S   UNL N   1     -46.264 -30.042 -13.516  0.00  0.00     0.243 S 
HETATM   28  O   UNL N   1     -46.223 -30.035 -15.052  0.00  0.00    -0.206 OA
HETATM   29  O   UNL N   1     -47.466 -30.953 -13.218  0.00  0.00    -0.206 OA
BRANCH  27  30
HETATM   30  N   UNL N   1     -46.780 -28.414 -13.024  0.00  0.00    -0.203 NA
HETATM   31  C   UNL N   1     -48.215 -28.265 -13.314  0.00  0.00     0.135 C 
HETATM   32  C   UNL N   1     -48.677 -26.853 -12.937  0.00  0.00     0.250 C 
HETATM   33  N   UNL N   1     -47.905 -25.841 -13.687  0.00  0.00    -0.073 N 
HETATM   34  C   UNL N   1     -46.457 -26.005 -13.428  0.00  0.00     0.250 C 
HETATM   35  C   UNL N   1     -48.338 -24.487 -13.306  0.00  0.00     0.269 C 
HETATM   36  H   UNL N   1     -48.085 -25.962 -14.713  0.00  0.00     0.279 HD
HETATM   37  C   UNL N   1     -46.010 -27.423 -13.798  0.00  0.00     0.135 C 
ENDBRANCH  27  30
ENDBRANCH   1  27
TORSDOF 7
ENDMDL
