MODEL 1
REMARK VINA RESULT:      -7.6      0.000      0.000
REMARK  1 active torsions:
REMARK  status: ('A' for Active; 'I' for Inactive)
REMARK    1  A    between atoms: C_13  and  C_14 
ROOT
HETATM    1  C   TDL     1      45.839 119.781 129.757  1.00  0.00     0.153 C 
HETATM    2  N   TDL     1      47.186 119.591 130.257  1.00  0.00    -0.346 N 
HETATM    3  C   TDL     1      47.744 120.634 131.107  1.00  0.00     0.228 C 
HETATM    4  C   TDL     1      49.274 120.648 131.089  1.00  0.00     0.239 C 
HETATM    5  O   TDL     1      49.903 121.665 131.377  1.00  0.00    -0.271 OA
HETATM    6  N   TDL     1      49.871 119.401 130.866  1.00  0.00    -0.323 N 
HETATM    7  C   TDL     1      49.030 118.198 131.137  1.00  0.00     0.185 C 
HETATM    8  C   TDL     1      47.670 118.293 130.409  1.00  0.00     0.243 C 
HETATM    9  O   TDL     1      47.010 117.301 130.104  1.00  0.00    -0.271 OA
HETATM   10  C   TDL     1      49.669 116.841 130.764  1.00  0.00     0.076 C 
HETATM   11  C   TDL     1      51.073 116.807 131.229  1.00  0.00    -0.018 A 
HETATM   12  C   TDL     1      51.800 117.972 131.321  1.00  0.00     0.045 A 
HETATM   13  C   TDL     1      51.340 119.358 130.998  1.00  0.00     0.172 C 
HETATM   14  N   TDL     1      53.060 117.647 131.750  1.00  0.00    -0.356 N 
HETATM   15  C   TDL     1      53.152 116.286 131.943  1.00  0.00     0.043 A 
HETATM   16  C   TDL     1      54.236 115.509 132.369  1.00  0.00     0.030 A 
HETATM   17  C   TDL     1      54.044 114.127 132.465  1.00  0.00     0.002 A 
HETATM   18  C   TDL     1      52.819 113.547 132.146  1.00  0.00     0.001 A 
HETATM   19  C   TDL     1      51.744 114.337 131.720  1.00  0.00     0.014 A 
HETATM   20  C   TDL     1      51.911 115.731 131.618  1.00  0.00    -0.001 A 
HETATM   21  H   TDL     1      53.822 118.299 131.886  1.00  0.00     0.166 HD
ENDROOT
BRANCH  13  22
HETATM   22  C   TDL     1      52.014 119.893 129.738  1.00  0.00    -0.027 A 
HETATM   23  C   TDL     1      51.591 119.487 128.457  1.00  0.00     0.049 A 
HETATM   24  C   TDL     1      52.249 119.995 127.358  1.00  0.00     0.105 A 
HETATM   25  C   TDL     1      53.291 120.882 127.482  1.00  0.00     0.105 A 
HETATM   26  O   TDL     1      51.972 119.699 126.060  1.00  0.00    -0.323 OA
HETATM   27  C   TDL     1      53.729 121.316 128.713  1.00  0.00     0.040 A 
HETATM   28  O   TDL     1      53.803 121.254 126.278  1.00  0.00    -0.323 OA
HETATM   29  C   TDL     1      53.083 120.818 129.848  1.00  0.00     0.012 A 
HETATM   30  C   TDL     1      52.964 120.497 125.382  1.00  0.00     0.352 A 
ENDBRANCH  13  22
TORSDOF 1
ENDMDL
