MODEL 1
REMARK VINA RESULT:      -9.5      0.000      0.000
REMARK  1 active torsions:
REMARK  status: ('A' for Active; 'I' for Inactive)
REMARK    1  A    between atoms: C_13  and  C_14 
ROOT
HETATM    1  C   TDL     1      76.458 111.813 170.884  1.00  0.00     0.153 C 
HETATM    2  N   TDL     1      76.484 111.341 169.515  1.00  0.00    -0.346 N 
HETATM    3  C   TDL     1      76.548 112.340 168.457  1.00  0.00     0.228 C 
HETATM    4  C   TDL     1      75.990 111.823 167.129  1.00  0.00     0.239 C 
HETATM    5  O   TDL     1      75.573 112.599 166.271  1.00  0.00    -0.271 OA
HETATM    6  N   TDL     1      76.129 110.445 166.929  1.00  0.00    -0.323 N 
HETATM    7  C   TDL     1      77.166 109.750 167.749  1.00  0.00     0.185 C 
HETATM    8  C   TDL     1      76.997 110.072 169.250  1.00  0.00     0.243 C 
HETATM    9  O   TDL     1      77.400 109.323 170.139  1.00  0.00    -0.271 OA
HETATM   10  C   TDL     1      77.214 108.213 167.599  1.00  0.00     0.076 C 
HETATM   11  C   TDL     1      77.122 107.848 166.169  1.00  0.00    -0.018 A 
HETATM   12  C   TDL     1      76.444 108.660 165.289  1.00  0.00     0.045 A 
HETATM   13  C   TDL     1      75.742 109.945 165.595  1.00  0.00     0.172 C 
HETATM   14  N   TDL     1      76.499 108.076 164.051  1.00  0.00    -0.356 N 
HETATM   15  C   TDL     1      77.211 106.898 164.121  1.00  0.00     0.043 A 
HETATM   16  C   TDL     1      77.519 105.972 163.117  1.00  0.00     0.030 A 
HETATM   17  C   TDL     1      78.258 104.843 163.482  1.00  0.00     0.002 A 
HETATM   18  C   TDL     1      78.671 104.649 164.798  1.00  0.00     0.001 A 
HETATM   19  C   TDL     1      78.355 105.582 165.791  1.00  0.00     0.014 A 
HETATM   20  C   TDL     1      77.613 106.729 165.449  1.00  0.00    -0.001 A 
HETATM   21  H   TDL     1      76.066 108.436 163.211  1.00  0.00     0.166 HD
ENDROOT
BRANCH  13  22
HETATM   22  C   TDL     1      74.228 109.795 165.490  1.00  0.00    -0.027 A 
HETATM   23  C   TDL     1      73.519 108.940 166.357  1.00  0.00     0.049 A 
HETATM   24  C   TDL     1      72.153 108.837 166.203  1.00  0.00     0.105 A 
HETATM   25  C   TDL     1      71.476 109.545 165.240  1.00  0.00     0.105 A 
HETATM   26  O   TDL     1      71.327 108.053 166.947  1.00  0.00    -0.323 OA
HETATM   27  C   TDL     1      72.126 110.402 164.380  1.00  0.00     0.040 A 
HETATM   28  O   TDL     1      70.139 109.295 165.255  1.00  0.00    -0.323 OA
HETATM   29  C   TDL     1      73.512 110.528 164.510  1.00  0.00     0.012 A 
HETATM   30  C   TDL     1      70.054 108.345 166.337  1.00  0.00     0.352 A 
ENDBRANCH  13  22
TORSDOF 1
ENDMDL
