MODEL 1
REMARK VINA RESULT:      -6.9      0.000      0.000
REMARK  1 active torsions:
REMARK  status: ('A' for Active; 'I' for Inactive)
REMARK    1  A    between atoms: C_13  and  C_14 
ROOT
HETATM    1  C   TDL     1      56.924  86.231 145.757  1.00  0.00     0.153 C 
HETATM    2  N   TDL     1      57.882  86.875 146.632  1.00  0.00    -0.346 N 
HETATM    3  C   TDL     1      58.677  87.963 146.080  1.00  0.00     0.228 C 
HETATM    4  C   TDL     1      59.996  88.163 146.828  1.00  0.00     0.239 C 
HETATM    5  O   TDL     1      60.957  88.709 146.287  1.00  0.00    -0.271 OA
HETATM    6  N   TDL     1      59.963  87.812 148.183  1.00  0.00    -0.323 N 
HETATM    7  C   TDL     1      58.617  87.748 148.826  1.00  0.00     0.185 C 
HETATM    8  C   TDL     1      57.650  86.864 148.007  1.00  0.00     0.243 C 
HETATM    9  O   TDL     1      56.679  86.301 148.509  1.00  0.00    -0.271 OA
HETATM   10  C   TDL     1      58.599  87.239 150.285  1.00  0.00     0.076 C 
HETATM   11  C   TDL     1      59.688  87.883 151.051  1.00  0.00    -0.018 A 
HETATM   12  C   TDL     1      60.843  88.278 150.416  1.00  0.00     0.045 A 
HETATM   13  C   TDL     1      61.173  88.140 148.963  1.00  0.00     0.172 C 
HETATM   14  N   TDL     1      61.677  88.817 151.358  1.00  0.00    -0.356 N 
HETATM   15  C   TDL     1      61.072  88.780 152.596  1.00  0.00     0.043 A 
HETATM   16  C   TDL     1      61.542  89.213 153.841  1.00  0.00     0.030 A 
HETATM   17  C   TDL     1      60.704  89.039 154.946  1.00  0.00     0.002 A 
HETATM   18  C   TDL     1      59.447  88.454 154.810  1.00  0.00     0.001 A 
HETATM   19  C   TDL     1      58.990  88.025 153.559  1.00  0.00     0.014 A 
HETATM   20  C   TDL     1      59.815  88.192 152.429  1.00  0.00    -0.001 A 
HETATM   21  H   TDL     1      62.610  89.170 151.186  1.00  0.00     0.166 HD
ENDROOT
BRANCH  13  22
HETATM   22  C   TDL     1      62.265  87.100 148.733  1.00  0.00    -0.027 A 
HETATM   23  C   TDL     1      63.624  87.468 148.688  1.00  0.00     0.049 A 
HETATM   24  C   TDL     1      64.563  86.485 148.463  1.00  0.00     0.105 A 
HETATM   25  C   TDL     1      64.207  85.169 148.289  1.00  0.00     0.105 A 
HETATM   26  O   TDL     1      65.907  86.673 148.381  1.00  0.00    -0.323 OA
HETATM   27  C   TDL     1      62.892  84.761 148.338  1.00  0.00     0.040 A 
HETATM   28  O   TDL     1      65.282  84.363 148.074  1.00  0.00    -0.323 OA
HETATM   29  C   TDL     1      61.916  85.737 148.564  1.00  0.00     0.012 A 
HETATM   30  C   TDL     1      66.355  85.326 148.131  1.00  0.00     0.352 A 
ENDBRANCH  13  22
TORSDOF 1
ENDMDL
