MODEL 1
REMARK VINA RESULT:    -6.886      0.000      0.000
REMARK INTER + INTRA:         -13.841
REMARK INTER:                 -11.716
REMARK INTRA:                  -2.125
REMARK UNBOUND:                -2.125
REMARK  12 active torsions:
REMARK  status: ('A' for Active; 'I' for Inactive)
REMARK    1  A    between atoms: N1_2  and  C31_40 
REMARK    2  A    between atoms: C2_4  and  C3_7 
REMARK       I    between atoms: N2_5  and  C3_7 
REMARK    3  A    between atoms: N2_5  and  C4_10 
REMARK    4  A    between atoms: N3_8  and  C10_19 
REMARK       I    between atoms: N4_11  and  C21_30 
REMARK    5  A    between atoms: N4_11  and  C22_31 
REMARK    6  A    between atoms: C10_19  and  C11_20 
REMARK    7  A    between atoms: C11_20  and  C12_21 
REMARK    8  A    between atoms: C12_21  and  C13_22 
REMARK    9  A    between atoms: C13_22  and  C14_23 
REMARK   10  A    between atoms: C13_22  and  C21_30 
REMARK   11  A    between atoms: C14_23  and  C15_24 
REMARK   12  A    between atoms: C31_40  and  C32_41 
ROOT
HETATM    1  O2  MK1 B 902      20.667   9.701 -17.860  1.00 15.87    -0.221 OA
HETATM    2  C11 MK1 B 902      21.073  11.016 -17.627  1.00 21.68     0.174 C 
ENDROOT
BRANCH   2   3
HETATM    3  C10 MK1 B 902      21.320  10.821 -16.130  1.00 20.86     0.131 C 
BRANCH   3   4
HETATM    4  N3  MK1 B 902      21.848   9.518 -15.780  1.00 28.91    -0.357 N 
HETATM    5  C2  MK1 B 902      23.336   9.398 -15.592  1.00 27.27     0.192 C 
HETATM    6  C1  MK1 B 902      23.474   7.956 -15.145  1.00 30.30     0.282 C 
HETATM    7  N1  MK1 B 902      22.774   7.451 -13.934  1.00 28.25     0.146 N 
HETATM    8  C9  MK1 B 902      21.405   7.579 -14.161  1.00 27.47     0.274 C 
HETATM    9  C8  MK1 B 902      20.945   8.878 -14.791  1.00 26.24     0.133 C 
BRANCH   5  10
HETATM   10  C3  MK1 B 902      24.109   9.575 -16.871  1.00 28.85     0.273 C 
HETATM   11  O1  MK1 B 902      23.922   8.819 -17.816  1.00 29.59    -0.269 OA
HETATM   12  N2  MK1 B 902      24.987  10.557 -16.908  1.00 22.29    -0.240 NA
BRANCH  12  13
HETATM   13  C4  MK1 B 902      25.813  11.019 -17.977  1.00 23.47     0.088 C 
HETATM   14  C5  MK1 B 902      26.624   9.808 -18.474  1.00 27.66     0.025 C 
HETATM   15  C6  MK1 B 902      26.662  12.051 -17.610  1.00 21.71     0.025 C 
HETATM   16  C7  MK1 B 902      25.056  11.462 -19.153  1.00 22.75     0.025 C 
ENDBRANCH  12  13
ENDBRANCH   5  10
BRANCH   7  17
HETATM   17  C31 MK1 B 902      23.191   6.144 -13.413  1.00 36.25     0.278 C 
BRANCH  17  18
HETATM   18  C32 MK1 B 902      22.996   5.772 -11.938  1.00 42.75     0.030 A 
HETATM   19  C33 MK1 B 902      22.662   6.710 -10.951  1.00 47.41     0.097 A 
HETATM   20  N5  MK1 B 902      22.448   6.444  -9.588  1.00 51.38    -0.243 NA
HETATM   21  C34 MK1 B 902      22.609   5.085  -9.319  1.00 50.60     0.099 A 
HETATM   22  C35 MK1 B 902      22.940   4.100 -10.254  1.00 49.34     0.020 A 
HETATM   23  C36 MK1 B 902      23.136   4.447 -11.588  1.00 44.71     0.001 A 
ENDBRANCH  17  18
ENDBRANCH   7  17
ENDBRANCH   3   4
ENDBRANCH   2   3
BRANCH   2  24
HETATM   24  C12 MK1 B 902      20.003  11.955 -18.211  1.00 21.49     0.045 C 
BRANCH  24  25
HETATM   25  C13 MK1 B 902      20.276  13.459 -18.353  1.00 26.89     0.088 C 
BRANCH  25  26
HETATM   26  C14 MK1 B 902      21.247  13.770 -19.506  1.00 28.67     0.036 C 
BRANCH  26  27
HETATM   27  C15 MK1 B 902      22.538  14.324 -19.027  1.00 26.89    -0.022 A 
HETATM   28  C16 MK1 B 902      23.404  15.039 -19.857  1.00 29.22    -0.004 A 
HETATM   29  C17 MK1 B 902      24.617  15.507 -19.375  1.00 29.22    -0.000 A 
HETATM   30  C18 MK1 B 902      24.958  15.251 -18.045  1.00 30.97    -0.000 A 
HETATM   31  C19 MK1 B 902      24.088  14.542 -17.208  1.00 29.25    -0.000 A 
HETATM   32  C20 MK1 B 902      22.871  14.078 -17.706  1.00 29.96    -0.004 A 
ENDBRANCH  26  27
ENDBRANCH  25  26
BRANCH  25  33
HETATM   33  C21 MK1 B 902      18.993  14.257 -18.561  1.00 29.35     0.252 C 
HETATM   34  O3  MK1 B 902      17.886  13.705 -18.477  1.00 32.66    -0.271 OA
HETATM   35  N4  MK1 B 902      19.163  15.517 -18.950  1.00 31.19    -0.233 NA
BRANCH  35  36
HETATM   36  C22 MK1 B 902      18.068  16.298 -19.501  1.00 29.22     0.159 C 
HETATM   37  C23 MK1 B 902      17.986  16.173 -21.013  1.00 28.82     0.183 C 
HETATM   38  O4  MK1 B 902      19.285  16.031 -21.568  1.00 28.32    -0.221 OA
HETATM   39  C24 MK1 B 902      17.254  17.414 -21.475  1.00 32.05     0.061 C 
HETATM   40  C25 MK1 B 902      17.543  18.574 -20.554  1.00 31.29    -0.022 A 
HETATM   41  C26 MK1 B 902      17.478  19.946 -20.606  1.00 32.00    -0.004 A 
HETATM   42  C30 MK1 B 902      18.081  17.836 -19.295  1.00 31.86    -0.001 A 
HETATM   43  C27 MK1 B 902      17.897  20.673 -19.486  1.00 28.00    -0.000 A 
HETATM   44  C28 MK1 B 902      18.370  20.017 -18.340  1.00 29.01    -0.000 A 
HETATM   45  C29 MK1 B 902      18.459  18.634 -18.262  1.00 27.70    -0.003 A 
ENDBRANCH  35  36
ENDBRANCH  25  33
ENDBRANCH  24  25
ENDBRANCH   2  24
TORSDOF 12
ENDMDL
MODEL 2
REMARK VINA RESULT:    -6.432      2.061      3.842
REMARK INTER + INTRA:         -13.070
REMARK INTER:                 -10.383
REMARK INTRA:                  -2.686
REMARK UNBOUND:                -2.125
REMARK  12 active torsions:
REMARK  status: ('A' for Active; 'I' for Inactive)
REMARK    1  A    between atoms: N1_2  and  C31_40 
REMARK    2  A    between atoms: C2_4  and  C3_7 
REMARK       I    between atoms: N2_5  and  C3_7 
REMARK    3  A    between atoms: N2_5  and  C4_10 
REMARK    4  A    between atoms: N3_8  and  C10_19 
REMARK       I    between atoms: N4_11  and  C21_30 
REMARK    5  A    between atoms: N4_11  and  C22_31 
REMARK    6  A    between atoms: C10_19  and  C11_20 
REMARK    7  A    between atoms: C11_20  and  C12_21 
REMARK    8  A    between atoms: C12_21  and  C13_22 
REMARK    9  A    between atoms: C13_22  and  C14_23 
REMARK   10  A    between atoms: C13_22  and  C21_30 
REMARK   11  A    between atoms: C14_23  and  C15_24 
REMARK   12  A    between atoms: C31_40  and  C32_41 
ROOT
HETATM    1  O2  MK1 B 902      20.401   9.983 -21.649  1.00 15.87    -0.221 OA
HETATM    2  C11 MK1 B 902      21.099  10.933 -20.902  1.00 21.68     0.174 C 
ENDROOT
BRANCH   2   3
HETATM    3  C10 MK1 B 902      20.378  10.633 -19.587  1.00 20.86     0.131 C 
BRANCH   3   4
HETATM    4  N3  MK1 B 902      21.257  10.531 -18.439  1.00 28.91    -0.357 N 
HETATM    5  C2  MK1 B 902      20.643  10.716 -17.076  1.00 27.27     0.192 C 
HETATM    6  C1  MK1 B 902      21.825  10.439 -16.168  1.00 30.30     0.282 C 
HETATM    7  N1  MK1 B 902      22.552   9.142 -16.218  1.00 28.25     0.146 N 
HETATM    8  C9  MK1 B 902      23.102   9.023 -17.493  1.00 27.47     0.274 C 
HETATM    9  C8  MK1 B 902      22.208   9.412 -18.652  1.00 26.24     0.133 C 
BRANCH   5  10
HETATM   10  C3  MK1 B 902      20.173  12.123 -16.827  1.00 28.85     0.273 C 
HETATM   11  O1  MK1 B 902      20.813  12.868 -16.096  1.00 29.59    -0.269 OA
HETATM   12  N2  MK1 B 902      19.052  12.492 -17.415  1.00 22.29    -0.240 NA
BRANCH  12  13
HETATM   13  C4  MK1 B 902      18.390  13.757 -17.432  1.00 23.47     0.088 C 
HETATM   14  C5  MK1 B 902      17.401  13.731 -18.612  1.00 27.66     0.025 C 
HETATM   15  C6  MK1 B 902      19.259  14.830 -17.555  1.00 21.71     0.025 C 
HETATM   16  C7  MK1 B 902      17.551  13.996 -16.254  1.00 22.75     0.025 C 
ENDBRANCH  12  13
ENDBRANCH   5  10
BRANCH   7  17
HETATM   17  C31 MK1 B 902      23.479   8.849 -15.118  1.00 36.25     0.278 C 
BRANCH  17  18
HETATM   18  C32 MK1 B 902      23.088   7.908 -13.973  1.00 42.75     0.030 A 
HETATM   19  C33 MK1 B 902      21.762   7.533 -13.711  1.00 47.41     0.097 A 
HETATM   20  N5  MK1 B 902      21.329   6.664 -12.696  1.00 51.38    -0.243 NA
HETATM   21  C34 MK1 B 902      22.410   6.196 -11.951  1.00 50.60     0.099 A 
HETATM   22  C35 MK1 B 902      23.752   6.529 -12.158  1.00 49.34     0.020 A 
HETATM   23  C36 MK1 B 902      24.099   7.399 -13.188  1.00 44.71     0.001 A 
ENDBRANCH  17  18
ENDBRANCH   7  17
ENDBRANCH   3   4
ENDBRANCH   2   3
BRANCH   2  24
HETATM   24  C12 MK1 B 902      21.016  12.278 -21.646  1.00 21.49     0.045 C 
BRANCH  24  25
HETATM   25  C13 MK1 B 902      21.014  13.603 -20.869  1.00 26.89     0.088 C 
BRANCH  25  26
HETATM   26  C14 MK1 B 902      22.283  14.434 -21.130  1.00 28.67     0.036 C 
BRANCH  26  27
HETATM   27  C15 MK1 B 902      23.107  14.611 -19.908  1.00 26.89    -0.022 A 
HETATM   28  C16 MK1 B 902      22.838  13.938 -18.715  1.00 29.22    -0.004 A 
HETATM   29  C17 MK1 B 902      23.613  14.160 -17.587  1.00 29.22    -0.000 A 
HETATM   30  C18 MK1 B 902      24.669  15.072 -17.666  1.00 30.97    -0.000 A 
HETATM   31  C19 MK1 B 902      24.947  15.743 -18.863  1.00 29.25    -0.000 A 
HETATM   32  C20 MK1 B 902      24.158  15.508 -19.989  1.00 29.96    -0.004 A 
ENDBRANCH  26  27
ENDBRANCH  25  26
BRANCH  25  33
HETATM   33  C21 MK1 B 902      19.792  14.454 -21.191  1.00 29.35     0.252 C 
HETATM   34  O3  MK1 B 902      18.884  14.009 -21.910  1.00 32.66    -0.271 OA
HETATM   35  N4  MK1 B 902      19.841  15.710 -20.756  1.00 31.19    -0.233 NA
BRANCH  35  36
HETATM   36  C22 MK1 B 902      18.928  16.724 -21.255  1.00 29.22     0.159 C 
HETATM   37  C23 MK1 B 902      19.494  17.457 -22.459  1.00 28.82     0.183 C 
HETATM   38  O4  MK1 B 902      20.905  17.572 -22.348  1.00 28.32    -0.221 OA
HETATM   39  C24 MK1 B 902      18.772  18.785 -22.492  1.00 32.05     0.061 C 
HETATM   40  C25 MK1 B 902      18.413  19.229 -21.095  1.00 31.29    -0.022 A 
HETATM   41  C26 MK1 B 902      18.090  20.404 -20.460  1.00 32.00    -0.004 A 
HETATM   42  C30 MK1 B 902      18.534  17.891 -20.311  1.00 31.86    -0.001 A 
HETATM   43  C27 MK1 B 902      17.856  20.370 -19.081  1.00 28.00    -0.000 A 
HETATM   44  C28 MK1 B 902      17.949  19.167 -18.366  1.00 29.01    -0.000 A 
HETATM   45  C29 MK1 B 902      18.285  17.967 -18.977  1.00 27.70    -0.003 A 
ENDBRANCH  35  36
ENDBRANCH  25  33
ENDBRANCH  24  25
ENDBRANCH   2  24
TORSDOF 12
ENDMDL
MODEL 3
REMARK VINA RESULT:    -6.223      2.117     11.249
REMARK INTER + INTRA:         -12.714
REMARK INTER:                 -11.074
REMARK INTRA:                  -1.641
REMARK UNBOUND:                -2.125
REMARK  12 active torsions:
REMARK  status: ('A' for Active; 'I' for Inactive)
REMARK    1  A    between atoms: N1_2  and  C31_40 
REMARK    2  A    between atoms: C2_4  and  C3_7 
REMARK       I    between atoms: N2_5  and  C3_7 
REMARK    3  A    between atoms: N2_5  and  C4_10 
REMARK    4  A    between atoms: N3_8  and  C10_19 
REMARK       I    between atoms: N4_11  and  C21_30 
REMARK    5  A    between atoms: N4_11  and  C22_31 
REMARK    6  A    between atoms: C10_19  and  C11_20 
REMARK    7  A    between atoms: C11_20  and  C12_21 
REMARK    8  A    between atoms: C12_21  and  C13_22 
REMARK    9  A    between atoms: C13_22  and  C14_23 
REMARK   10  A    between atoms: C13_22  and  C21_30 
REMARK   11  A    between atoms: C14_23  and  C15_24 
REMARK   12  A    between atoms: C31_40  and  C32_41 
ROOT
HETATM    1  O2  MK1 B 902      21.558   9.557 -17.854  1.00 15.87    -0.221 OA
HETATM    2  C11 MK1 B 902      21.197  10.359 -16.771  1.00 21.68     0.174 C 
ENDROOT
BRANCH   2   3
HETATM    3  C10 MK1 B 902      22.005  11.576 -17.223  1.00 20.86     0.131 C 
BRANCH   3   4
HETATM    4  N3  MK1 B 902      21.236  12.802 -17.306  1.00 28.91    -0.357 N 
HETATM    5  C2  MK1 B 902      21.117  13.458 -18.655  1.00 27.27     0.192 C 
HETATM    6  C1  MK1 B 902      20.181  14.612 -18.354  1.00 30.30     0.282 C 
HETATM    7  N1  MK1 B 902      18.825  14.381 -17.789  1.00 28.25     0.146 N 
HETATM    8  C9  MK1 B 902      18.991  13.778 -16.543  1.00 27.47     0.274 C 
HETATM    9  C8  MK1 B 902      20.022  12.672 -16.462  1.00 26.24     0.133 C 
BRANCH   5  10
HETATM   10  C3  MK1 B 902      22.420  14.022 -19.154  1.00 28.85     0.273 C 
HETATM   11  O1  MK1 B 902      22.470  14.605 -20.230  1.00 29.59    -0.269 OA
HETATM   12  N2  MK1 B 902      23.480  13.842 -18.392  1.00 22.29    -0.240 NA
BRANCH  12  13
HETATM   13  C4  MK1 B 902      24.821  14.306 -18.549  1.00 23.47     0.088 C 
HETATM   14  C5  MK1 B 902      24.756  15.842 -18.654  1.00 27.66     0.025 C 
HETATM   15  C6  MK1 B 902      25.460  13.775 -19.658  1.00 21.71     0.025 C 
HETATM   16  C7  MK1 B 902      25.671  14.053 -17.381  1.00 22.75     0.025 C 
ENDBRANCH  12  13
ENDBRANCH   5  10
BRANCH   7  17
HETATM   17  C31 MK1 B 902      17.889  15.512 -17.805  1.00 36.25     0.278 C 
BRANCH  17  18
HETATM   18  C32 MK1 B 902      17.851  16.501 -18.976  1.00 42.75     0.030 A 
HETATM   19  C33 MK1 B 902      17.330  16.175 -20.236  1.00 47.41     0.097 A 
HETATM   20  N5  MK1 B 902      17.244  17.031 -21.348  1.00 51.38    -0.243 NA
HETATM   21  C34 MK1 B 902      17.754  18.291 -21.042  1.00 50.60     0.099 A 
HETATM   22  C35 MK1 B 902      18.288  18.681 -19.810  1.00 49.34     0.020 A 
HETATM   23  C36 MK1 B 902      18.337  17.772 -18.756  1.00 44.71     0.001 A 
ENDBRANCH  17  18
ENDBRANCH   7  17
ENDBRANCH   3   4
ENDBRANCH   2   3
BRANCH   2  24
HETATM   24  C12 MK1 B 902      21.474   9.569 -15.479  1.00 21.49     0.045 C 
BRANCH  24  25
HETATM   25  C13 MK1 B 902      22.649   8.584 -15.403  1.00 26.89     0.088 C 
BRANCH  25  26
HETATM   26  C14 MK1 B 902      23.872   9.188 -14.689  1.00 28.67     0.036 C 
BRANCH  26  27
HETATM   27  C15 MK1 B 902      25.053   9.297 -15.582  1.00 26.89    -0.022 A 
HETATM   28  C16 MK1 B 902      25.265  10.394 -16.420  1.00 29.22    -0.004 A 
HETATM   29  C17 MK1 B 902      26.364  10.437 -17.264  1.00 29.22    -0.000 A 
HETATM   30  C18 MK1 B 902      27.256   9.361 -17.262  1.00 30.97    -0.000 A 
HETATM   31  C19 MK1 B 902      27.051   8.263 -16.418  1.00 29.25    -0.000 A 
HETATM   32  C20 MK1 B 902      25.941   8.235 -15.574  1.00 29.96    -0.004 A 
ENDBRANCH  26  27
ENDBRANCH  25  26
BRANCH  25  33
HETATM   33  C21 MK1 B 902      22.263   7.285 -14.704  1.00 29.35     0.252 C 
HETATM   34  O3  MK1 B 902      21.408   6.534 -15.195  1.00 32.66    -0.271 OA
HETATM   35  N4  MK1 B 902      22.810   7.099 -13.506  1.00 31.19    -0.233 NA
BRANCH  35  36
HETATM   36  C22 MK1 B 902      22.299   6.098 -12.584  1.00 29.22     0.159 C 
HETATM   37  C23 MK1 B 902      22.482   6.513 -11.134  1.00 28.82     0.183 C 
HETATM   38  O4  MK1 B 902      23.675   7.270 -10.985  1.00 28.32    -0.221 OA
HETATM   39  C24 MK1 B 902      22.472   5.223 -10.347  1.00 32.05     0.061 C 
HETATM   40  C25 MK1 B 902      23.039   4.094 -11.171  1.00 31.29    -0.022 A 
HETATM   41  C26 MK1 B 902      23.587   2.853 -10.944  1.00 32.00    -0.004 A 
HETATM   42  C30 MK1 B 902      22.934   4.682 -12.606  1.00 31.86    -0.001 A 
HETATM   43  C27 MK1 B 902      24.041   2.118 -12.045  1.00 28.00    -0.000 A 
HETATM   44  C28 MK1 B 902      23.938   2.633 -13.345  1.00 29.01    -0.000 A 
HETATM   45  C29 MK1 B 902      23.401   3.886 -13.604  1.00 27.70    -0.003 A 
ENDBRANCH  35  36
ENDBRANCH  25  33
ENDBRANCH  24  25
ENDBRANCH   2  24
TORSDOF 12
ENDMDL
MODEL 4
REMARK VINA RESULT:    -6.197      2.070      3.048
REMARK INTER + INTRA:         -12.669
REMARK INTER:                 -11.035
REMARK INTRA:                  -1.634
REMARK UNBOUND:                -2.125
REMARK  12 active torsions:
REMARK  status: ('A' for Active; 'I' for Inactive)
REMARK    1  A    between atoms: N1_2  and  C31_40 
REMARK    2  A    between atoms: C2_4  and  C3_7 
REMARK       I    between atoms: N2_5  and  C3_7 
REMARK    3  A    between atoms: N2_5  and  C4_10 
REMARK    4  A    between atoms: N3_8  and  C10_19 
REMARK       I    between atoms: N4_11  and  C21_30 
REMARK    5  A    between atoms: N4_11  and  C22_31 
REMARK    6  A    between atoms: C10_19  and  C11_20 
REMARK    7  A    between atoms: C11_20  and  C12_21 
REMARK    8  A    between atoms: C12_21  and  C13_22 
REMARK    9  A    between atoms: C13_22  and  C14_23 
REMARK   10  A    between atoms: C13_22  and  C21_30 
REMARK   11  A    between atoms: C14_23  and  C15_24 
REMARK   12  A    between atoms: C31_40  and  C32_41 
ROOT
HETATM    1  O2  MK1 B 902      20.139   9.889 -18.751  1.00 15.87    -0.221 OA
HETATM    2  C11 MK1 B 902      20.974  10.984 -18.521  1.00 21.68     0.174 C 
ENDROOT
BRANCH   2   3
HETATM    3  C10 MK1 B 902      22.074  10.176 -17.831  1.00 20.86     0.131 C 
BRANCH   3   4
HETATM    4  N3  MK1 B 902      21.595   9.284 -16.795  1.00 28.91    -0.357 N 
HETATM    5  C2  MK1 B 902      22.152   7.886 -16.768  1.00 27.27     0.192 C 
HETATM    6  C1  MK1 B 902      21.505   7.322 -15.519  1.00 30.30     0.282 C 
HETATM    7  N1  MK1 B 902      21.698   7.962 -14.190  1.00 28.25     0.146 N 
HETATM    8  C9  MK1 B 902      21.163   9.247 -14.267  1.00 27.47     0.274 C 
HETATM    9  C8  MK1 B 902      21.482  10.037 -15.520  1.00 26.24     0.133 C 
BRANCH   5  10
HETATM   10  C3  MK1 B 902      21.718   7.055 -17.945  1.00 28.85     0.273 C 
HETATM   11  O1  MK1 B 902      22.501   6.816 -18.855  1.00 29.59    -0.269 OA
HETATM   12  N2  MK1 B 902      20.472   6.624 -17.945  1.00 22.29    -0.240 NA
BRANCH  12  13
HETATM   13  C4  MK1 B 902      19.789   5.773 -18.865  1.00 23.47     0.088 C 
HETATM   14  C5  MK1 B 902      20.590   4.460 -18.943  1.00 27.66     0.025 C 
HETATM   15  C6  MK1 B 902      19.650   6.328 -20.128  1.00 21.71     0.025 C 
HETATM   16  C7  MK1 B 902      18.457   5.364 -18.409  1.00 22.75     0.025 C 
ENDBRANCH  12  13
ENDBRANCH   5  10
BRANCH   7  17
HETATM   17  C31 MK1 B 902      21.287   7.195 -13.008  1.00 36.25     0.278 C 
BRANCH  17  18
HETATM   18  C32 MK1 B 902      22.320   6.545 -12.080  1.00 42.75     0.030 A 
HETATM   19  C33 MK1 B 902      23.426   5.824 -12.553  1.00 47.41     0.097 A 
HETATM   20  N5  MK1 B 902      24.421   5.218 -11.767  1.00 51.38    -0.243 NA
HETATM   21  C34 MK1 B 902      24.176   5.427 -10.411  1.00 50.60     0.099 A 
HETATM   22  C35 MK1 B 902      23.096   6.134  -9.874  1.00 49.34     0.020 A 
HETATM   23  C36 MK1 B 902      22.150   6.705 -10.722  1.00 44.71     0.001 A 
ENDBRANCH  17  18
ENDBRANCH   7  17
ENDBRANCH   3   4
ENDBRANCH   2   3
BRANCH   2  24
HETATM   24  C12 MK1 B 902      20.143  12.079 -17.829  1.00 21.49     0.045 C 
BRANCH  24  25
HETATM   25  C13 MK1 B 902      20.488  13.563 -18.024  1.00 26.89     0.088 C 
BRANCH  25  26
HETATM   26  C14 MK1 B 902      21.387  13.796 -19.252  1.00 28.67     0.036 C 
BRANCH  26  27
HETATM   27  C15 MK1 B 902      22.738  14.287 -18.881  1.00 26.89    -0.022 A 
HETATM   28  C16 MK1 B 902      23.520  15.060 -19.741  1.00 29.22    -0.004 A 
HETATM   29  C17 MK1 B 902      24.792  15.467 -19.367  1.00 29.22    -0.000 A 
HETATM   30  C18 MK1 B 902      25.278  15.087 -18.113  1.00 30.97    -0.000 A 
HETATM   31  C19 MK1 B 902      24.493  14.318 -17.245  1.00 29.25    -0.000 A 
HETATM   32  C20 MK1 B 902      23.216  13.918 -17.635  1.00 29.96    -0.004 A 
ENDBRANCH  26  27
ENDBRANCH  25  26
BRANCH  25  33
HETATM   33  C21 MK1 B 902      19.241  14.429 -18.153  1.00 29.35     0.252 C 
HETATM   34  O3  MK1 B 902      18.215  14.160 -17.510  1.00 32.66    -0.271 OA
HETATM   35  N4  MK1 B 902      19.305  15.385 -19.076  1.00 31.19    -0.233 NA
BRANCH  35  36
HETATM   36  C22 MK1 B 902      18.112  16.068 -19.548  1.00 29.22     0.159 C 
HETATM   37  C23 MK1 B 902      17.928  15.921 -21.049  1.00 28.82     0.183 C 
HETATM   38  O4  MK1 B 902      19.190  15.879 -21.698  1.00 28.32    -0.221 OA
HETATM   39  C24 MK1 B 902      17.065  17.093 -21.460  1.00 32.05     0.061 C 
HETATM   40  C25 MK1 B 902      17.326  18.282 -20.569  1.00 31.29    -0.022 A 
HETATM   41  C26 MK1 B 902      17.145  19.644 -20.622  1.00 32.00    -0.004 A 
HETATM   42  C30 MK1 B 902      18.014  17.603 -19.350  1.00 31.86    -0.001 A 
HETATM   43  C27 MK1 B 902      17.585  20.414 -19.540  1.00 28.00    -0.000 A 
HETATM   44  C28 MK1 B 902      18.194  19.811 -18.429  1.00 29.01    -0.000 A 
HETATM   45  C29 MK1 B 902      18.401  18.441 -18.352  1.00 27.70    -0.003 A 
ENDBRANCH  35  36
ENDBRANCH  25  33
ENDBRANCH  24  25
ENDBRANCH   2  24
TORSDOF 12
ENDMDL
MODEL 5
REMARK VINA RESULT:    -6.137      2.612      4.832
REMARK INTER + INTRA:         -12.567
REMARK INTER:                  -9.842
REMARK INTRA:                  -2.725
REMARK UNBOUND:                -2.125
REMARK  12 active torsions:
REMARK  status: ('A' for Active; 'I' for Inactive)
REMARK    1  A    between atoms: N1_2  and  C31_40 
REMARK    2  A    between atoms: C2_4  and  C3_7 
REMARK       I    between atoms: N2_5  and  C3_7 
REMARK    3  A    between atoms: N2_5  and  C4_10 
REMARK    4  A    between atoms: N3_8  and  C10_19 
REMARK       I    between atoms: N4_11  and  C21_30 
REMARK    5  A    between atoms: N4_11  and  C22_31 
REMARK    6  A    between atoms: C10_19  and  C11_20 
REMARK    7  A    between atoms: C11_20  and  C12_21 
REMARK    8  A    between atoms: C12_21  and  C13_22 
REMARK    9  A    between atoms: C13_22  and  C14_23 
REMARK   10  A    between atoms: C13_22  and  C21_30 
REMARK   11  A    between atoms: C14_23  and  C15_24 
REMARK   12  A    between atoms: C31_40  and  C32_41 
ROOT
HETATM    1  O2  MK1 B 902      18.363  15.063 -16.377  1.00 15.87    -0.221 OA
HETATM    2  C11 MK1 B 902      18.482  13.786 -16.926  1.00 21.68     0.174 C 
ENDROOT
BRANCH   2   3
HETATM    3  C10 MK1 B 902      19.867  14.022 -17.528  1.00 20.86     0.131 C 
BRANCH   3   4
HETATM    4  N3  MK1 B 902      20.663  12.820 -17.676  1.00 28.91    -0.357 N 
HETATM    5  C2  MK1 B 902      22.039  12.967 -18.270  1.00 27.27     0.192 C 
HETATM    6  C1  MK1 B 902      22.572  11.551 -18.161  1.00 30.30     0.282 C 
HETATM    7  N1  MK1 B 902      22.664  10.858 -16.849  1.00 28.25     0.146 N 
HETATM    8  C9  MK1 B 902      21.369  10.744 -16.346  1.00 27.47     0.274 C 
HETATM    9  C8  MK1 B 902      20.487  11.970 -16.472  1.00 26.24     0.133 C 
BRANCH   5  10
HETATM   10  C3  MK1 B 902      22.016  13.355 -19.723  1.00 28.85     0.273 C 
HETATM   11  O1  MK1 B 902      22.025  14.536 -20.047  1.00 29.59    -0.269 OA
HETATM   12  N2  MK1 B 902      21.973  12.375 -20.604  1.00 22.29    -0.240 NA
BRANCH  12  13
HETATM   13  C4  MK1 B 902      22.011  12.412 -22.030  1.00 23.47     0.088 C 
HETATM   14  C5  MK1 B 902      21.885  10.958 -22.521  1.00 27.66     0.025 C 
HETATM   15  C6  MK1 B 902      23.164  12.993 -22.535  1.00 21.71     0.025 C 
HETATM   16  C7  MK1 B 902      20.865  13.103 -22.629  1.00 22.75     0.025 C 
ENDBRANCH  12  13
ENDBRANCH   5  10
BRANCH   7  17
HETATM   17  C31 MK1 B 902      23.455   9.622 -16.796  1.00 36.25     0.278 C 
BRANCH  17  18
HETATM   18  C32 MK1 B 902      23.028   8.438 -15.920  1.00 42.75     0.030 A 
HETATM   19  C33 MK1 B 902      23.350   8.339 -14.558  1.00 47.41     0.097 A 
HETATM   20  N5  MK1 B 902      22.980   7.299 -13.690  1.00 51.38    -0.243 NA
HETATM   21  C34 MK1 B 902      22.224   6.339 -14.361  1.00 50.60     0.099 A 
HETATM   22  C35 MK1 B 902      21.868   6.377 -15.713  1.00 49.34     0.020 A 
HETATM   23  C36 MK1 B 902      22.275   7.445 -16.508  1.00 44.71     0.001 A 
ENDBRANCH  17  18
ENDBRANCH   7  17
ENDBRANCH   3   4
ENDBRANCH   2   3
BRANCH   2  24
HETATM   24  C12 MK1 B 902      17.216  13.503 -17.754  1.00 21.49     0.045 C 
BRANCH  24  25
HETATM   25  C13 MK1 B 902      17.280  13.451 -19.287  1.00 26.89     0.088 C 
BRANCH  25  26
HETATM   26  C14 MK1 B 902      16.424  12.311 -19.868  1.00 28.67     0.036 C 
BRANCH  26  27
HETATM   27  C15 MK1 B 902      17.204  11.065 -20.075  1.00 26.89    -0.022 A 
HETATM   28  C16 MK1 B 902      16.604   9.848 -20.404  1.00 29.22    -0.004 A 
HETATM   29  C17 MK1 B 902      17.369   8.700 -20.552  1.00 29.22    -0.000 A 
HETATM   30  C18 MK1 B 902      18.751   8.785 -20.366  1.00 30.97    -0.000 A 
HETATM   31  C19 MK1 B 902      19.357  10.005 -20.044  1.00 29.25    -0.000 A 
HETATM   32  C20 MK1 B 902      18.574  11.150 -19.899  1.00 29.96    -0.004 A 
ENDBRANCH  26  27
ENDBRANCH  25  26
BRANCH  25  33
HETATM   33  C21 MK1 B 902      16.846  14.766 -19.924  1.00 29.35     0.252 C 
HETATM   34  O3  MK1 B 902      15.953  14.788 -20.784  1.00 32.66    -0.271 OA
HETATM   35  N4  MK1 B 902      17.568  15.830 -19.582  1.00 31.19    -0.233 NA
BRANCH  35  36
HETATM   36  C22 MK1 B 902      17.501  17.070 -20.337  1.00 29.22     0.159 C 
HETATM   37  C23 MK1 B 902      18.353  17.019 -21.594  1.00 28.82     0.183 C 
HETATM   38  O4  MK1 B 902      19.510  16.227 -21.372  1.00 28.32    -0.221 OA
HETATM   39  C24 MK1 B 902      18.653  18.462 -21.929  1.00 32.05     0.061 C 
HETATM   40  C25 MK1 B 902      18.724  19.296 -20.674  1.00 31.29    -0.022 A 
HETATM   41  C26 MK1 B 902      19.259  20.503 -20.291  1.00 32.00    -0.004 A 
HETATM   42  C30 MK1 B 902      17.990  18.376 -19.657  1.00 31.86    -0.001 A 
HETATM   43  C27 MK1 B 902      19.118  20.897 -18.955  1.00 28.00    -0.000 A 
HETATM   44  C28 MK1 B 902      18.446  20.081 -18.033  1.00 29.01    -0.000 A 
HETATM   45  C29 MK1 B 902      17.905  18.853 -18.387  1.00 27.70    -0.003 A 
ENDBRANCH  35  36
ENDBRANCH  25  33
ENDBRANCH  24  25
ENDBRANCH   2  24
TORSDOF 12
ENDMDL
MODEL 6
REMARK VINA RESULT:    -6.084      1.388      1.788
REMARK INTER + INTRA:         -12.478
REMARK INTER:                 -10.821
REMARK INTRA:                  -1.657
REMARK UNBOUND:                -2.125
REMARK  12 active torsions:
REMARK  status: ('A' for Active; 'I' for Inactive)
REMARK    1  A    between atoms: N1_2  and  C31_40 
REMARK    2  A    between atoms: C2_4  and  C3_7 
REMARK       I    between atoms: N2_5  and  C3_7 
REMARK    3  A    between atoms: N2_5  and  C4_10 
REMARK    4  A    between atoms: N3_8  and  C10_19 
REMARK       I    between atoms: N4_11  and  C21_30 
REMARK    5  A    between atoms: N4_11  and  C22_31 
REMARK    6  A    between atoms: C10_19  and  C11_20 
REMARK    7  A    between atoms: C11_20  and  C12_21 
REMARK    8  A    between atoms: C12_21  and  C13_22 
REMARK    9  A    between atoms: C13_22  and  C14_23 
REMARK   10  A    between atoms: C13_22  and  C21_30 
REMARK   11  A    between atoms: C14_23  and  C15_24 
REMARK   12  A    between atoms: C31_40  and  C32_41 
ROOT
HETATM    1  O2  MK1 B 902      20.707   9.842 -18.007  1.00 15.87    -0.221 OA
HETATM    2  C11 MK1 B 902      21.308  11.097 -17.897  1.00 21.68     0.174 C 
ENDROOT
BRANCH   2   3
HETATM    3  C10 MK1 B 902      22.384  10.650 -16.907  1.00 20.86     0.131 C 
BRANCH   3   4
HETATM    4  N3  MK1 B 902      22.059   9.435 -16.186  1.00 28.91    -0.357 N 
HETATM    5  C2  MK1 B 902      23.092   8.340 -16.168  1.00 27.27     0.192 C 
HETATM    6  C1  MK1 B 902      22.441   7.319 -15.257  1.00 30.30     0.282 C 
HETATM    7  N1  MK1 B 902      22.052   7.662 -13.863  1.00 28.25     0.146 N 
HETATM    8  C9  MK1 B 902      21.094   8.673 -13.936  1.00 27.47     0.274 C 
HETATM    9  C8  MK1 B 902      21.367   9.790 -14.922  1.00 26.24     0.133 C 
BRANCH   5  10
HETATM   10  C3  MK1 B 902      23.305   7.707 -17.516  1.00 28.85     0.273 C 
HETATM   11  O1  MK1 B 902      22.487   6.910 -17.961  1.00 29.59    -0.269 OA
HETATM   12  N2  MK1 B 902      24.401   8.039 -18.168  1.00 22.29    -0.240 NA
BRANCH  12  13
HETATM   13  C4  MK1 B 902      24.849   7.671 -19.472  1.00 23.47     0.088 C 
HETATM   14  C5  MK1 B 902      26.270   8.241 -19.638  1.00 27.66     0.025 C 
HETATM   15  C6  MK1 B 902      24.024   8.132 -20.487  1.00 21.71     0.025 C 
HETATM   16  C7  MK1 B 902      25.010   6.225 -19.651  1.00 22.75     0.025 C 
ENDBRANCH  12  13
ENDBRANCH   5  10
BRANCH   7  17
HETATM   17  C31 MK1 B 902      21.706   6.551 -12.969  1.00 36.25     0.278 C 
BRANCH  17  18
HETATM   18  C32 MK1 B 902      22.676   6.067 -11.884  1.00 42.75     0.030 A 
HETATM   19  C33 MK1 B 902      23.705   6.867 -11.367  1.00 47.41     0.097 A 
HETATM   20  N5  MK1 B 902      24.617   6.501 -10.363  1.00 51.38    -0.243 NA
HETATM   21  C34 MK1 B 902      24.371   5.202  -9.920  1.00 50.60     0.099 A 
HETATM   22  C35 MK1 B 902      23.366   4.353 -10.393  1.00 49.34     0.020 A 
HETATM   23  C36 MK1 B 902      22.500   4.792 -11.392  1.00 44.71     0.001 A 
ENDBRANCH  17  18
ENDBRANCH   7  17
ENDBRANCH   3   4
ENDBRANCH   2   3
BRANCH   2  24
HETATM   24  C12 MK1 B 902      20.208  12.125 -17.573  1.00 21.49     0.045 C 
BRANCH  24  25
HETATM   25  C13 MK1 B 902      20.396  13.608 -17.922  1.00 26.89     0.088 C 
BRANCH  25  26
HETATM   26  C14 MK1 B 902      21.258  13.806 -19.182  1.00 28.67     0.036 C 
BRANCH  26  27
HETATM   27  C15 MK1 B 902      22.628  14.281 -18.863  1.00 26.89    -0.022 A 
HETATM   28  C16 MK1 B 902      23.152  14.251 -17.569  1.00 29.22    -0.004 A 
HETATM   29  C17 MK1 B 902      24.424  14.739 -17.310  1.00 29.22    -0.000 A 
HETATM   30  C18 MK1 B 902      25.172  15.262 -18.368  1.00 30.97    -0.000 A 
HETATM   31  C19 MK1 B 902      24.653  15.285 -19.668  1.00 29.25    -0.000 A 
HETATM   32  C20 MK1 B 902      23.372  14.791 -19.912  1.00 29.96    -0.004 A 
ENDBRANCH  26  27
ENDBRANCH  25  26
BRANCH  25  33
HETATM   33  C21 MK1 B 902      19.064  14.322 -18.119  1.00 29.35     0.252 C 
HETATM   34  O3  MK1 B 902      17.995  13.750 -17.858  1.00 32.66    -0.271 OA
HETATM   35  N4  MK1 B 902      19.140  15.520 -18.693  1.00 31.19    -0.233 NA
BRANCH  35  36
HETATM   36  C22 MK1 B 902      17.965  16.175 -19.245  1.00 29.22     0.159 C 
HETATM   37  C23 MK1 B 902      17.747  15.818 -20.705  1.00 28.82     0.183 C 
HETATM   38  O4  MK1 B 902      18.994  15.630 -21.357  1.00 28.32    -0.221 OA
HETATM   39  C24 MK1 B 902      16.923  16.952 -21.272  1.00 32.05     0.061 C 
HETATM   40  C25 MK1 B 902      17.246  18.247 -20.568  1.00 31.29    -0.022 A 
HETATM   41  C26 MK1 B 902      17.117  19.593 -20.819  1.00 32.00    -0.004 A 
HETATM   42  C30 MK1 B 902      17.931  17.726 -19.273  1.00 31.86    -0.001 A 
HETATM   43  C27 MK1 B 902      17.608  20.494 -19.867  1.00 28.00    -0.000 A 
HETATM   44  C28 MK1 B 902      18.214  20.035 -18.688  1.00 29.01    -0.000 A 
HETATM   45  C29 MK1 B 902      18.369  18.684 -18.414  1.00 27.70    -0.003 A 
ENDBRANCH  35  36
ENDBRANCH  25  33
ENDBRANCH  24  25
ENDBRANCH   2  24
TORSDOF 12
ENDMDL
MODEL 7
REMARK VINA RESULT:    -6.081      2.457     10.330
REMARK INTER + INTRA:         -12.471
REMARK INTER:                  -9.634
REMARK INTRA:                  -2.838
REMARK UNBOUND:                -2.125
REMARK  12 active torsions:
REMARK  status: ('A' for Active; 'I' for Inactive)
REMARK    1  A    between atoms: N1_2  and  C31_40 
REMARK    2  A    between atoms: C2_4  and  C3_7 
REMARK       I    between atoms: N2_5  and  C3_7 
REMARK    3  A    between atoms: N2_5  and  C4_10 
REMARK    4  A    between atoms: N3_8  and  C10_19 
REMARK       I    between atoms: N4_11  and  C21_30 
REMARK    5  A    between atoms: N4_11  and  C22_31 
REMARK    6  A    between atoms: C10_19  and  C11_20 
REMARK    7  A    between atoms: C11_20  and  C12_21 
REMARK    8  A    between atoms: C12_21  and  C13_22 
REMARK    9  A    between atoms: C13_22  and  C14_23 
REMARK   10  A    between atoms: C13_22  and  C21_30 
REMARK   11  A    between atoms: C14_23  and  C15_24 
REMARK   12  A    between atoms: C31_40  and  C32_41 
ROOT
HETATM    1  O2  MK1 B 902      23.048  10.847 -22.557  1.00 15.87    -0.221 OA
HETATM    2  C11 MK1 B 902      22.168  11.334 -21.589  1.00 21.68     0.174 C 
ENDROOT
BRANCH   2   3
HETATM    3  C10 MK1 B 902      21.981  12.701 -22.247  1.00 20.86     0.131 C 
BRANCH   3   4
HETATM    4  N3  MK1 B 902      21.013  13.552 -21.582  1.00 28.91    -0.357 N 
HETATM    5  C2  MK1 B 902      21.494  14.884 -21.070  1.00 27.27     0.192 C 
HETATM    6  C1  MK1 B 902      20.207  15.497 -20.555  1.00 30.30     0.282 C 
HETATM    7  N1  MK1 B 902      19.034  15.698 -21.447  1.00 28.25     0.146 N 
HETATM    8  C9  MK1 B 902      18.627  14.439 -21.888  1.00 27.47     0.274 C 
HETATM    9  C8  MK1 B 902      19.725  13.488 -22.316  1.00 26.24     0.133 C 
BRANCH   5  10
HETATM   10  C3  MK1 B 902      22.456  14.761 -19.920  1.00 28.85     0.273 C 
HETATM   11  O1  MK1 B 902      22.059  14.405 -18.818  1.00 29.59    -0.269 OA
HETATM   12  N2  MK1 B 902      23.716  15.067 -20.159  1.00 22.29    -0.240 NA
BRANCH  12  13
HETATM   13  C4  MK1 B 902      24.862  14.990 -19.311  1.00 23.47     0.088 C 
HETATM   14  C5  MK1 B 902      26.034  15.629 -20.080  1.00 27.66     0.025 C 
HETATM   15  C6  MK1 B 902      25.182  13.694 -18.936  1.00 21.71     0.025 C 
HETATM   16  C7  MK1 B 902      24.743  15.791 -18.089  1.00 22.75     0.025 C 
ENDBRANCH  12  13
ENDBRANCH   5  10
BRANCH   7  17
HETATM   17  C31 MK1 B 902      17.951  16.555 -20.950  1.00 36.25     0.278 C 
BRANCH  17  18
HETATM   18  C32 MK1 B 902      18.243  17.897 -20.269  1.00 42.75     0.030 A 
HETATM   19  C33 MK1 B 902      18.764  19.005 -20.954  1.00 47.41     0.097 A 
HETATM   20  N5  MK1 B 902      19.039  20.268 -20.404  1.00 51.38    -0.243 NA
HETATM   21  C34 MK1 B 902      18.720  20.297 -19.047  1.00 50.60     0.099 A 
HETATM   22  C35 MK1 B 902      18.200  19.232 -18.306  1.00 49.34     0.020 A 
HETATM   23  C36 MK1 B 902      17.955  18.009 -18.926  1.00 44.71     0.001 A 
ENDBRANCH  17  18
ENDBRANCH   7  17
ENDBRANCH   3   4
ENDBRANCH   2   3
BRANCH   2  24
HETATM   24  C12 MK1 B 902      22.814  11.120 -20.208  1.00 21.49     0.045 C 
BRANCH  24  25
HETATM   25  C13 MK1 B 902      21.943  10.885 -18.965  1.00 26.89     0.088 C 
BRANCH  25  26
HETATM   26  C14 MK1 B 902      20.440  10.998 -19.277  1.00 28.67     0.036 C 
BRANCH  26  27
HETATM   27  C15 MK1 B 902      19.758  12.006 -18.426  1.00 26.89    -0.022 A 
HETATM   28  C16 MK1 B 902      20.236  12.376 -17.168  1.00 29.22    -0.004 A 
HETATM   29  C17 MK1 B 902      19.547  13.296 -16.392  1.00 29.22    -0.000 A 
HETATM   30  C18 MK1 B 902      18.364  13.845 -16.893  1.00 30.97    -0.000 A 
HETATM   31  C19 MK1 B 902      17.886  13.483 -18.158  1.00 29.25    -0.000 A 
HETATM   32  C20 MK1 B 902      18.591  12.557 -18.926  1.00 29.96    -0.004 A 
ENDBRANCH  26  27
ENDBRANCH  25  26
BRANCH  25  33
HETATM   33  C21 MK1 B 902      22.214   9.530 -18.324  1.00 29.35     0.252 C 
HETATM   34  O3  MK1 B 902      22.126   8.487 -18.990  1.00 32.66    -0.271 OA
HETATM   35  N4  MK1 B 902      22.418   9.552 -17.010  1.00 31.19    -0.233 NA
BRANCH  35  36
HETATM   36  C22 MK1 B 902      22.360   8.340 -16.210  1.00 29.22     0.159 C 
HETATM   37  C23 MK1 B 902      21.094   8.270 -15.373  1.00 28.82     0.183 C 
HETATM   38  O4  MK1 B 902      20.701   9.572 -14.965  1.00 28.32    -0.221 OA
HETATM   39  C24 MK1 B 902      21.426   7.342 -14.227  1.00 32.05     0.061 C 
HETATM   40  C25 MK1 B 902      22.889   7.440 -13.870  1.00 31.29    -0.022 A 
HETATM   41  C26 MK1 B 902      23.687   7.149 -12.789  1.00 32.00    -0.004 A 
HETATM   42  C30 MK1 B 902      23.471   8.100 -15.153  1.00 31.86    -0.001 A 
HETATM   43  C27 MK1 B 902      25.051   7.449 -12.873  1.00 28.00    -0.000 A 
HETATM   44  C28 MK1 B 902      25.590   8.031 -14.030  1.00 29.01    -0.000 A 
HETATM   45  C29 MK1 B 902      24.807   8.347 -15.132  1.00 27.70    -0.003 A 
ENDBRANCH  35  36
ENDBRANCH  25  33
ENDBRANCH  24  25
ENDBRANCH   2  24
TORSDOF 12
ENDMDL
MODEL 8
REMARK VINA RESULT:    -6.048      2.850      5.689
REMARK INTER + INTRA:         -12.415
REMARK INTER:                 -10.158
REMARK INTRA:                  -2.257
REMARK UNBOUND:                -2.125
REMARK  12 active torsions:
REMARK  status: ('A' for Active; 'I' for Inactive)
REMARK    1  A    between atoms: N1_2  and  C31_40 
REMARK    2  A    between atoms: C2_4  and  C3_7 
REMARK       I    between atoms: N2_5  and  C3_7 
REMARK    3  A    between atoms: N2_5  and  C4_10 
REMARK    4  A    between atoms: N3_8  and  C10_19 
REMARK       I    between atoms: N4_11  and  C21_30 
REMARK    5  A    between atoms: N4_11  and  C22_31 
REMARK    6  A    between atoms: C10_19  and  C11_20 
REMARK    7  A    between atoms: C11_20  and  C12_21 
REMARK    8  A    between atoms: C12_21  and  C13_22 
REMARK    9  A    between atoms: C13_22  and  C14_23 
REMARK   10  A    between atoms: C13_22  and  C21_30 
REMARK   11  A    between atoms: C14_23  and  C15_24 
REMARK   12  A    between atoms: C31_40  and  C32_41 
ROOT
HETATM    1  O2  MK1 B 902      22.276  15.389 -20.778  1.00 15.87    -0.221 OA
HETATM    2  C11 MK1 B 902      21.295  14.765 -20.006  1.00 21.68     0.174 C 
ENDROOT
BRANCH   2   3
HETATM    3  C10 MK1 B 902      21.732  13.341 -20.350  1.00 20.86     0.131 C 
BRANCH   3   4
HETATM    4  N3  MK1 B 902      21.888  12.473 -19.199  1.00 28.91    -0.357 N 
HETATM    5  C2  MK1 B 902      22.385  13.096 -17.922  1.00 27.27     0.192 C 
HETATM    6  C1  MK1 B 902      22.313  11.925 -16.962  1.00 30.30     0.282 C 
HETATM    7  N1  MK1 B 902      21.033  11.211 -16.706  1.00 28.25     0.146 N 
HETATM    8  C9  MK1 B 902      20.620  10.651 -17.915  1.00 27.47     0.274 C 
HETATM    9  C8  MK1 B 902      20.742  11.532 -19.141  1.00 26.24     0.133 C 
BRANCH   5  10
HETATM   10  C3  MK1 B 902      23.815  13.554 -18.006  1.00 28.85     0.273 C 
HETATM   11  O1  MK1 B 902      24.082  14.749 -18.020  1.00 29.59    -0.269 OA
HETATM   12  N2  MK1 B 902      24.740  12.617 -18.076  1.00 22.29    -0.240 NA
BRANCH  12  13
HETATM   13  C4  MK1 B 902      26.163  12.723 -18.096  1.00 23.47     0.088 C 
HETATM   14  C5  MK1 B 902      26.723  11.302 -17.898  1.00 27.66     0.025 C 
HETATM   15  C6  MK1 B 902      26.664  13.578 -17.126  1.00 21.71     0.025 C 
HETATM   16  C7  MK1 B 902      26.701  13.154 -19.390  1.00 22.75     0.025 C 
ENDBRANCH  12  13
ENDBRANCH   5  10
BRANCH   7  17
HETATM   17  C31 MK1 B 902      20.991  10.296 -15.559  1.00 36.25     0.278 C 
BRANCH  17  18
HETATM   18  C32 MK1 B 902      21.846   9.024 -15.520  1.00 42.75     0.030 A 
HETATM   19  C33 MK1 B 902      21.418   7.799 -16.051  1.00 47.41     0.097 A 
HETATM   20  N5  MK1 B 902      22.149   6.599 -16.071  1.00 51.38    -0.243 NA
HETATM   21  C34 MK1 B 902      23.400   6.774 -15.480  1.00 50.60     0.099 A 
HETATM   22  C35 MK1 B 902      23.887   7.964 -14.933  1.00 49.34     0.020 A 
HETATM   23  C36 MK1 B 902      23.099   9.112 -14.954  1.00 44.71     0.001 A 
ENDBRANCH  17  18
ENDBRANCH   7  17
ENDBRANCH   3   4
ENDBRANCH   2   3
BRANCH   2  24
HETATM   24  C12 MK1 B 902      19.931  15.367 -20.390  1.00 21.49     0.045 C 
BRANCH  24  25
HETATM   25  C13 MK1 B 902      18.890  15.699 -19.311  1.00 26.89     0.088 C 
BRANCH  25  26
HETATM   26  C14 MK1 B 902      17.793  16.646 -19.831  1.00 28.67     0.036 C 
BRANCH  26  27
HETATM   27  C15 MK1 B 902      18.142  18.076 -19.642  1.00 26.89    -0.022 A 
HETATM   28  C16 MK1 B 902      18.527  18.903 -20.699  1.00 29.22    -0.004 A 
HETATM   29  C17 MK1 B 902      18.879  20.224 -20.470  1.00 29.22    -0.000 A 
HETATM   30  C18 MK1 B 902      18.842  20.714 -19.162  1.00 30.97    -0.000 A 
HETATM   31  C19 MK1 B 902      18.448  19.890 -18.101  1.00 29.25    -0.000 A 
HETATM   32  C20 MK1 B 902      18.097  18.563 -18.347  1.00 29.96    -0.004 A 
ENDBRANCH  26  27
ENDBRANCH  25  26
BRANCH  25  33
HETATM   33  C21 MK1 B 902      18.233  14.446 -18.745  1.00 29.35     0.252 C 
HETATM   34  O3  MK1 B 902      18.486  14.066 -17.592  1.00 32.66    -0.271 OA
HETATM   35  N4  MK1 B 902      17.492  13.753 -19.606  1.00 31.19    -0.233 NA
BRANCH  35  36
HETATM   36  C22 MK1 B 902      17.077  12.389 -19.326  1.00 29.22     0.159 C 
HETATM   37  C23 MK1 B 902      17.250  11.483 -20.534  1.00 28.82     0.183 C 
HETATM   38  O4  MK1 B 902      17.015  12.209 -21.731  1.00 28.32    -0.221 OA
HETATM   39  C24 MK1 B 902      16.287  10.338 -20.312  1.00 32.05     0.061 C 
HETATM   40  C25 MK1 B 902      15.076  10.804 -19.542  1.00 31.29    -0.022 A 
HETATM   41  C26 MK1 B 902      13.784  10.381 -19.337  1.00 32.00    -0.004 A 
HETATM   42  C30 MK1 B 902      15.600  12.133 -18.928  1.00 31.86    -0.001 A 
HETATM   43  C27 MK1 B 902      12.945  11.171 -18.544  1.00 28.00    -0.000 A 
HETATM   44  C28 MK1 B 902      13.411  12.365 -17.973  1.00 29.01    -0.000 A 
HETATM   45  C29 MK1 B 902      14.706  12.824 -18.172  1.00 27.70    -0.003 A 
ENDBRANCH  35  36
ENDBRANCH  25  33
ENDBRANCH  24  25
ENDBRANCH   2  24
TORSDOF 12
ENDMDL
MODEL 9
REMARK VINA RESULT:    -6.037      3.933      8.354
REMARK INTER + INTRA:         -12.398
REMARK INTER:                  -9.275
REMARK INTRA:                  -3.122
REMARK UNBOUND:                -2.125
REMARK  12 active torsions:
REMARK  status: ('A' for Active; 'I' for Inactive)
REMARK    1  A    between atoms: N1_2  and  C31_40 
REMARK    2  A    between atoms: C2_4  and  C3_7 
REMARK       I    between atoms: N2_5  and  C3_7 
REMARK    3  A    between atoms: N2_5  and  C4_10 
REMARK    4  A    between atoms: N3_8  and  C10_19 
REMARK       I    between atoms: N4_11  and  C21_30 
REMARK    5  A    between atoms: N4_11  and  C22_31 
REMARK    6  A    between atoms: C10_19  and  C11_20 
REMARK    7  A    between atoms: C11_20  and  C12_21 
REMARK    8  A    between atoms: C12_21  and  C13_22 
REMARK    9  A    between atoms: C13_22  and  C14_23 
REMARK   10  A    between atoms: C13_22  and  C21_30 
REMARK   11  A    between atoms: C14_23  and  C15_24 
REMARK   12  A    between atoms: C31_40  and  C32_41 
ROOT
HETATM    1  O2  MK1 B 902      22.964  11.588 -20.753  1.00 15.87    -0.221 OA
HETATM    2  C11 MK1 B 902      22.301  12.673 -21.330  1.00 21.68     0.174 C 
ENDROOT
BRANCH   2   3
HETATM    3  C10 MK1 B 902      23.441  13.043 -22.279  1.00 20.86     0.131 C 
BRANCH   3   4
HETATM    4  N3  MK1 B 902      24.087  14.303 -21.970  1.00 28.91    -0.357 N 
HETATM    5  C2  MK1 B 902      25.532  14.259 -21.551  1.00 27.27     0.192 C 
HETATM    6  C1  MK1 B 902      25.859  15.734 -21.423  1.00 30.30     0.282 C 
HETATM    7  N1  MK1 B 902      25.699  16.665 -22.573  1.00 28.25     0.146 N 
HETATM    8  C9  MK1 B 902      24.348  16.672 -22.917  1.00 27.47     0.274 C 
HETATM    9  C8  MK1 B 902      23.655  15.325 -22.956  1.00 26.24     0.133 C 
BRANCH   5  10
HETATM   10  C3  MK1 B 902      25.738  13.610 -20.210  1.00 28.85     0.273 C 
HETATM   11  O1  MK1 B 902      26.567  12.717 -20.076  1.00 29.59    -0.269 OA
HETATM   12  N2  MK1 B 902      24.985  14.036 -19.216  1.00 22.29    -0.240 NA
BRANCH  12  13
HETATM   13  C4  MK1 B 902      24.987  13.677 -17.834  1.00 23.47     0.088 C 
HETATM   14  C5  MK1 B 902      24.522  12.211 -17.750  1.00 27.66     0.025 C 
HETATM   15  C6  MK1 B 902      24.174  14.485 -17.055  1.00 21.71     0.025 C 
HETATM   16  C7  MK1 B 902      26.323  13.674 -17.231  1.00 22.75     0.025 C 
ENDBRANCH  12  13
ENDBRANCH   5  10
BRANCH   7  17
HETATM   17  C31 MK1 B 902      26.309  17.994 -22.452  1.00 36.25     0.278 C 
BRANCH  17  18
HETATM   18  C32 MK1 B 902      26.444  18.690 -21.092  1.00 42.75     0.030 A 
HETATM   19  C33 MK1 B 902      27.622  18.663 -20.332  1.00 47.41     0.097 A 
HETATM   20  N5  MK1 B 902      27.827  19.291 -19.092  1.00 51.38    -0.243 NA
HETATM   21  C34 MK1 B 902      26.680  19.973 -18.688  1.00 50.60     0.099 A 
HETATM   22  C35 MK1 B 902      25.476  20.040 -19.396  1.00 49.34     0.020 A 
HETATM   23  C36 MK1 B 902      25.354  19.389 -20.621  1.00 44.71     0.001 A 
ENDBRANCH  17  18
ENDBRANCH   7  17
ENDBRANCH   3   4
ENDBRANCH   2   3
BRANCH   2  24
HETATM   24  C12 MK1 B 902      21.794  13.580 -20.194  1.00 21.49     0.045 C 
BRANCH  24  25
HETATM   25  C13 MK1 B 902      20.535  13.206 -19.398  1.00 26.89     0.088 C 
BRANCH  25  26
HETATM   26  C14 MK1 B 902      20.804  13.130 -17.884  1.00 28.67     0.036 C 
BRANCH  26  27
HETATM   27  C15 MK1 B 902      20.887  11.731 -17.393  1.00 26.89    -0.022 A 
HETATM   28  C16 MK1 B 902      21.072  11.417 -16.045  1.00 29.22    -0.004 A 
HETATM   29  C17 MK1 B 902      21.180  10.097 -15.635  1.00 29.22    -0.000 A 
HETATM   30  C18 MK1 B 902      21.100   9.086 -16.596  1.00 30.97    -0.000 A 
HETATM   31  C19 MK1 B 902      20.906   9.397 -17.947  1.00 29.25    -0.000 A 
HETATM   32  C20 MK1 B 902      20.799  10.729 -18.344  1.00 29.96    -0.004 A 
ENDBRANCH  26  27
ENDBRANCH  25  26
BRANCH  25  33
HETATM   33  C21 MK1 B 902      19.390  14.181 -19.646  1.00 29.35     0.252 C 
HETATM   34  O3  MK1 B 902      18.212  13.820 -19.505  1.00 32.66    -0.271 OA
HETATM   35  N4  MK1 B 902      19.746  15.367 -20.132  1.00 31.19    -0.233 NA
BRANCH  35  36
HETATM   36  C22 MK1 B 902      18.774  16.270 -20.724  1.00 29.22     0.159 C 
HETATM   37  C23 MK1 B 902      19.219  16.770 -22.088  1.00 28.82     0.183 C 
HETATM   38  O4  MK1 B 902      20.632  16.907 -22.125  1.00 28.32    -0.221 OA
HETATM   39  C24 MK1 B 902      18.472  18.067 -22.298  1.00 32.05     0.061 C 
HETATM   40  C25 MK1 B 902      18.227  18.759 -20.980  1.00 31.29    -0.022 A 
HETATM   41  C26 MK1 B 902      17.937  20.031 -20.544  1.00 32.00    -0.004 A 
HETATM   42  C30 MK1 B 902      18.441  17.589 -19.978  1.00 31.86    -0.001 A 
HETATM   43  C27 MK1 B 902      17.825  20.250 -19.167  1.00 28.00    -0.000 A 
HETATM   44  C28 MK1 B 902      18.003  19.199 -18.255  1.00 29.01    -0.000 A 
HETATM   45  C29 MK1 B 902      18.307  17.908 -18.664  1.00 27.70    -0.003 A 
ENDBRANCH  35  36
ENDBRANCH  25  33
ENDBRANCH  24  25
ENDBRANCH   2  24
TORSDOF 12
ENDMDL
