MODEL 1
REMARK VINA RESULT:   -10.574      0.000      0.000
REMARK INTER + INTRA:         -19.607
REMARK INTER:                 -17.993
REMARK INTRA:                  -1.614
REMARK UNBOUND:                -1.614
REMARK  12 active torsions:
REMARK  status: ('A' for Active; 'I' for Inactive)
REMARK    1  A    between atoms: N1_2  and  C31_40 
REMARK    2  A    between atoms: C2_4  and  C3_7 
REMARK       I    between atoms: N2_5  and  C3_7 
REMARK    3  A    between atoms: N2_5  and  C4_10 
REMARK    4  A    between atoms: N3_8  and  C10_19 
REMARK       I    between atoms: N4_11  and  C21_30 
REMARK    5  A    between atoms: N4_11  and  C22_31 
REMARK    6  A    between atoms: C10_19  and  C11_20 
REMARK    7  A    between atoms: C11_20  and  C12_21 
REMARK    8  A    between atoms: C12_21  and  C13_22 
REMARK    9  A    between atoms: C13_22  and  C14_23 
REMARK   10  A    between atoms: C13_22  and  C21_30 
REMARK   11  A    between atoms: C14_23  and  C15_24 
REMARK   12  A    between atoms: C31_40  and  C32_41 
ROOT
HETATM    1  O2  MK1 B 902      14.978  24.377   4.707  1.00 15.87    -0.221 OA
HETATM    2  C11 MK1 B 902      13.815  23.854   5.276  1.00 21.68     0.174 C 
ENDROOT
BRANCH   2   3
HETATM    3  C10 MK1 B 902      12.899  24.968   4.767  1.00 20.86     0.131 C 
BRANCH   3   4
HETATM    4  N3  MK1 B 902      11.551  24.534   4.460  1.00 28.91    -0.357 N 
HETATM    5  C2  MK1 B 902      10.414  25.341   5.029  1.00 27.27     0.192 C 
HETATM    6  C1  MK1 B 902       9.212  24.653   4.413  1.00 30.30     0.282 C 
HETATM    7  N1  MK1 B 902       9.056  24.539   2.938  1.00 28.25     0.146 N 
HETATM    8  C9  MK1 B 902      10.127  23.783   2.464  1.00 27.47     0.274 C 
HETATM    9  C8  MK1 B 902      11.490  24.110   3.039  1.00 26.24     0.133 C 
BRANCH   5  10
HETATM   10  C3  MK1 B 902      10.307  25.235   6.525  1.00 28.85     0.273 C 
HETATM   11  O1  MK1 B 902      10.215  24.138   7.063  1.00 29.59    -0.269 OA
HETATM   12  N2  MK1 B 902      10.303  26.364   7.206  1.00 22.29    -0.240 NA
BRANCH  12  13
HETATM   13  C4  MK1 B 902      10.283  26.594   8.615  1.00 23.47     0.088 C 
HETATM   14  C5  MK1 B 902      11.703  26.308   9.137  1.00 27.66     0.025 C 
HETATM   15  C6  MK1 B 902       9.356  25.812   9.286  1.00 21.71     0.025 C 
HETATM   16  C7  MK1 B 902      10.032  27.992   8.978  1.00 22.75     0.025 C 
ENDBRANCH  12  13
ENDBRANCH   5  10
BRANCH   7  17
HETATM   17  C31 MK1 B 902       7.741  24.129   2.431  1.00 36.25     0.278 C 
BRANCH  17  18
HETATM   18  C32 MK1 B 902       6.471  24.303   3.272  1.00 42.75     0.030 A 
HETATM   19  C33 MK1 B 902       5.994  25.554   3.688  1.00 47.41     0.097 A 
HETATM   20  N5  MK1 B 902       4.832  25.793   4.441  1.00 51.38    -0.243 NA
HETATM   21  C34 MK1 B 902       4.180  24.597   4.737  1.00 50.60     0.099 A 
HETATM   22  C35 MK1 B 902       4.600  23.320   4.354  1.00 49.34     0.020 A 
HETATM   23  C36 MK1 B 902       5.765  23.167   3.607  1.00 44.71     0.001 A 
ENDBRANCH  17  18
ENDBRANCH   7  17
ENDBRANCH   3   4
ENDBRANCH   2   3
BRANCH   2  24
HETATM   24  C12 MK1 B 902      14.095  23.577   6.764  1.00 21.49     0.045 C 
BRANCH  24  25
HETATM   25  C13 MK1 B 902      15.252  22.660   7.184  1.00 26.89     0.088 C 
BRANCH  25  26
HETATM   26  C14 MK1 B 902      15.313  22.460   8.709  1.00 28.67     0.036 C 
BRANCH  26  27
HETATM   27  C15 MK1 B 902      16.441  21.588   9.122  1.00 26.89    -0.022 A 
HETATM   28  C16 MK1 B 902      16.256  20.415   9.857  1.00 29.22    -0.004 A 
HETATM   29  C17 MK1 B 902      17.342  19.649  10.252  1.00 29.22    -0.000 A 
HETATM   30  C18 MK1 B 902      18.627  20.074   9.904  1.00 30.97    -0.000 A 
HETATM   31  C19 MK1 B 902      18.816  21.245   9.160  1.00 29.25    -0.000 A 
HETATM   32  C20 MK1 B 902      17.713  22.004   8.769  1.00 29.96    -0.004 A 
ENDBRANCH  26  27
ENDBRANCH  25  26
BRANCH  25  33
HETATM   33  C21 MK1 B 902      15.175  21.295   6.511  1.00 29.35     0.252 C 
HETATM   34  O3  MK1 B 902      14.129  20.631   6.547  1.00 32.66    -0.271 OA
HETATM   35  N4  MK1 B 902      16.321  20.842   6.010  1.00 31.19    -0.233 NA
BRANCH  35  36
HETATM   36  C22 MK1 B 902      16.491  19.447   5.640  1.00 29.22     0.159 C 
HETATM   37  C23 MK1 B 902      17.878  18.931   5.984  1.00 28.82     0.183 C 
HETATM   38  O4  MK1 B 902      18.838  19.966   5.839  1.00 28.32    -0.221 OA
HETATM   39  C24 MK1 B 902      18.103  17.752   5.064  1.00 32.05     0.061 C 
HETATM   40  C25 MK1 B 902      17.377  17.953   3.757  1.00 31.29    -0.022 A 
HETATM   41  C26 MK1 B 902      17.451  17.463   2.474  1.00 32.00    -0.004 A 
HETATM   42  C30 MK1 B 902      16.354  19.058   4.144  1.00 31.86    -0.001 A 
HETATM   43  C27 MK1 B 902      16.568  17.975   1.517  1.00 28.00    -0.000 A 
HETATM   44  C28 MK1 B 902      15.631  18.962   1.858  1.00 29.01    -0.000 A 
HETATM   45  C29 MK1 B 902      15.541  19.485   3.141  1.00 27.70    -0.003 A 
ENDBRANCH  35  36
ENDBRANCH  25  33
ENDBRANCH  24  25
ENDBRANCH   2  24
TORSDOF 12
ENDMDL
MODEL 2
REMARK VINA RESULT:   -10.408      1.228      4.220
REMARK INTER + INTRA:         -19.323
REMARK INTER:                 -17.378
REMARK INTRA:                  -1.946
REMARK UNBOUND:                -1.614
REMARK  12 active torsions:
REMARK  status: ('A' for Active; 'I' for Inactive)
REMARK    1  A    between atoms: N1_2  and  C31_40 
REMARK    2  A    between atoms: C2_4  and  C3_7 
REMARK       I    between atoms: N2_5  and  C3_7 
REMARK    3  A    between atoms: N2_5  and  C4_10 
REMARK    4  A    between atoms: N3_8  and  C10_19 
REMARK       I    between atoms: N4_11  and  C21_30 
REMARK    5  A    between atoms: N4_11  and  C22_31 
REMARK    6  A    between atoms: C10_19  and  C11_20 
REMARK    7  A    between atoms: C11_20  and  C12_21 
REMARK    8  A    between atoms: C12_21  and  C13_22 
REMARK    9  A    between atoms: C13_22  and  C14_23 
REMARK   10  A    between atoms: C13_22  and  C21_30 
REMARK   11  A    between atoms: C14_23  and  C15_24 
REMARK   12  A    between atoms: C31_40  and  C32_41 
ROOT
HETATM    1  O2  MK1 B 902      13.528  24.676   6.923  1.00 15.87    -0.221 OA
HETATM    2  C11 MK1 B 902      13.656  23.884   5.781  1.00 21.68     0.174 C 
ENDROOT
BRANCH   2   3
HETATM    3  C10 MK1 B 902      12.909  24.849   4.859  1.00 20.86     0.131 C 
BRANCH   3   4
HETATM    4  N3  MK1 B 902      11.561  24.430   4.529  1.00 28.91    -0.357 N 
HETATM    5  C2  MK1 B 902      10.427  25.286   5.025  1.00 27.27     0.192 C 
HETATM    6  C1  MK1 B 902       9.228  24.596   4.403  1.00 30.30     0.282 C 
HETATM    7  N1  MK1 B 902       9.115  24.418   2.931  1.00 28.25     0.146 N 
HETATM    8  C9  MK1 B 902      10.182  23.618   2.526  1.00 27.47     0.274 C 
HETATM    9  C8  MK1 B 902      11.534  23.942   3.128  1.00 26.24     0.133 C 
BRANCH   5  10
HETATM   10  C3  MK1 B 902      10.271  25.253   6.520  1.00 28.85     0.273 C 
HETATM   11  O1  MK1 B 902      10.221  24.181   7.113  1.00 29.59    -0.269 OA
HETATM   12  N2  MK1 B 902      10.179  26.413   7.139  1.00 22.29    -0.240 NA
BRANCH  12  13
HETATM   13  C4  MK1 B 902      10.095  26.714   8.532  1.00 23.47     0.088 C 
HETATM   14  C5  MK1 B 902      11.470  26.392   9.145  1.00 27.66     0.025 C 
HETATM   15  C6  MK1 B 902       9.098  26.009   9.187  1.00 21.71     0.025 C 
HETATM   16  C7  MK1 B 902       9.891  28.139   8.813  1.00 22.75     0.025 C 
ENDBRANCH  12  13
ENDBRANCH   5  10
BRANCH   7  17
HETATM   17  C31 MK1 B 902       7.807  24.013   2.402  1.00 36.25     0.278 C 
BRANCH  17  18
HETATM   18  C32 MK1 B 902       6.515  24.264   3.187  1.00 42.75     0.030 A 
HETATM   19  C33 MK1 B 902       6.054  25.549   3.511  1.00 47.41     0.097 A 
HETATM   20  N5  MK1 B 902       4.874  25.858   4.208  1.00 51.38    -0.243 NA
HETATM   21  C34 MK1 B 902       4.185  24.697   4.553  1.00 50.60     0.099 A 
HETATM   22  C35 MK1 B 902       4.587  23.390   4.263  1.00 49.34     0.020 A 
HETATM   23  C36 MK1 B 902       5.772  23.167   3.566  1.00 44.71     0.001 A 
ENDBRANCH  17  18
ENDBRANCH   7  17
ENDBRANCH   3   4
ENDBRANCH   2   3
BRANCH   2  24
HETATM   24  C12 MK1 B 902      13.168  22.466   6.127  1.00 21.49     0.045 C 
BRANCH  24  25
HETATM   25  C13 MK1 B 902      14.171  21.323   6.336  1.00 26.89     0.088 C 
BRANCH  25  26
HETATM   26  C14 MK1 B 902      15.282  21.319   5.270  1.00 28.67     0.036 C 
BRANCH  26  27
HETATM   27  C15 MK1 B 902      15.173  20.166   4.341  1.00 26.89    -0.022 A 
HETATM   28  C16 MK1 B 902      15.366  18.847   4.754  1.00 29.22    -0.004 A 
HETATM   29  C17 MK1 B 902      15.290  17.803   3.844  1.00 29.22    -0.000 A 
HETATM   30  C18 MK1 B 902      15.018  18.097   2.505  1.00 30.97    -0.000 A 
HETATM   31  C19 MK1 B 902      14.815  19.418   2.089  1.00 29.25    -0.000 A 
HETATM   32  C20 MK1 B 902      14.894  20.456   3.016  1.00 29.96    -0.004 A 
ENDBRANCH  26  27
ENDBRANCH  25  26
BRANCH  25  33
HETATM   33  C21 MK1 B 902      14.813  21.370   7.717  1.00 29.35     0.252 C 
HETATM   34  O3  MK1 B 902      14.318  22.060   8.621  1.00 32.66    -0.271 OA
HETATM   35  N4  MK1 B 902      15.976  20.733   7.826  1.00 31.19    -0.233 NA
BRANCH  35  36
HETATM   36  C22 MK1 B 902      16.862  20.956   8.956  1.00 29.22     0.159 C 
HETATM   37  C23 MK1 B 902      18.242  21.416   8.516  1.00 28.82     0.183 C 
HETATM   38  O4  MK1 B 902      18.588  20.817   7.276  1.00 28.32    -0.221 OA
HETATM   39  C24 MK1 B 902      19.166  21.046   9.654  1.00 32.05     0.061 C 
HETATM   40  C25 MK1 B 902      18.673  19.806  10.358  1.00 31.29    -0.022 A 
HETATM   41  C26 MK1 B 902      19.196  18.833  11.176  1.00 32.00    -0.004 A 
HETATM   42  C30 MK1 B 902      17.192  19.756   9.884  1.00 31.86    -0.001 A 
HETATM   43  C27 MK1 B 902      18.356  17.793  11.589  1.00 28.00    -0.000 A 
HETATM   44  C28 MK1 B 902      17.015  17.745  11.179  1.00 29.01    -0.000 A 
HETATM   45  C29 MK1 B 902      16.462  18.706  10.344  1.00 27.70    -0.003 A 
ENDBRANCH  35  36
ENDBRANCH  25  33
ENDBRANCH  24  25
ENDBRANCH   2  24
TORSDOF 12
ENDMDL
MODEL 3
REMARK VINA RESULT:   -10.386      2.010     10.359
REMARK INTER + INTRA:         -19.287
REMARK INTER:                 -17.180
REMARK INTRA:                  -2.107
REMARK UNBOUND:                -1.614
REMARK  12 active torsions:
REMARK  status: ('A' for Active; 'I' for Inactive)
REMARK    1  A    between atoms: N1_2  and  C31_40 
REMARK    2  A    between atoms: C2_4  and  C3_7 
REMARK       I    between atoms: N2_5  and  C3_7 
REMARK    3  A    between atoms: N2_5  and  C4_10 
REMARK    4  A    between atoms: N3_8  and  C10_19 
REMARK       I    between atoms: N4_11  and  C21_30 
REMARK    5  A    between atoms: N4_11  and  C22_31 
REMARK    6  A    between atoms: C10_19  and  C11_20 
REMARK    7  A    between atoms: C11_20  and  C12_21 
REMARK    8  A    between atoms: C12_21  and  C13_22 
REMARK    9  A    between atoms: C13_22  and  C14_23 
REMARK   10  A    between atoms: C13_22  and  C21_30 
REMARK   11  A    between atoms: C14_23  and  C15_24 
REMARK   12  A    between atoms: C31_40  and  C32_41 
ROOT
HETATM    1  O2  MK1 B 902      14.056  22.343   3.592  1.00 15.87    -0.221 OA
HETATM    2  C11 MK1 B 902      13.745  23.041   4.760  1.00 21.68     0.174 C 
ENDROOT
BRANCH   2   3
HETATM    3  C10 MK1 B 902      15.160  22.987   5.335  1.00 20.86     0.131 C 
BRANCH   3   4
HETATM    4  N3  MK1 B 902      15.297  22.127   6.494  1.00 28.91    -0.357 N 
HETATM    5  C2  MK1 B 902      16.175  20.911   6.357  1.00 27.27     0.192 C 
HETATM    6  C1  MK1 B 902      16.145  20.351   7.766  1.00 30.30     0.282 C 
HETATM    7  N1  MK1 B 902      16.590  21.162   8.931  1.00 28.25     0.146 N 
HETATM    8  C9  MK1 B 902      15.745  22.268   9.015  1.00 27.47     0.274 C 
HETATM    9  C8  MK1 B 902      15.419  22.967   7.711  1.00 26.24     0.133 C 
BRANCH   5  10
HETATM   10  C3  MK1 B 902      15.610  19.877   5.423  1.00 28.85     0.273 C 
HETATM   11  O1  MK1 B 902      14.506  19.390   5.635  1.00 29.59    -0.269 OA
HETATM   12  N2  MK1 B 902      16.359  19.523   4.398  1.00 22.29    -0.240 NA
BRANCH  12  13
HETATM   13  C4  MK1 B 902      16.084  18.634   3.315  1.00 23.47     0.088 C 
HETATM   14  C5  MK1 B 902      15.166  19.390   2.335  1.00 27.66     0.025 C 
HETATM   15  C6  MK1 B 902      15.488  17.448   3.715  1.00 21.71     0.025 C 
HETATM   16  C7  MK1 B 902      17.268  18.293   2.521  1.00 22.75     0.025 C 
ENDBRANCH  12  13
ENDBRANCH   5  10
BRANCH   7  17
HETATM   17  C31 MK1 B 902      16.805  20.455  10.199  1.00 36.25     0.278 C 
BRANCH  17  18
HETATM   18  C32 MK1 B 902      17.267  18.994  10.230  1.00 42.75     0.030 A 
HETATM   19  C33 MK1 B 902      18.430  18.545   9.587  1.00 47.41     0.097 A 
HETATM   20  N5  MK1 B 902      18.927  17.231   9.587  1.00 51.38    -0.243 NA
HETATM   21  C34 MK1 B 902      18.100  16.390  10.331  1.00 50.60     0.099 A 
HETATM   22  C35 MK1 B 902      16.930  16.771  10.994  1.00 49.34     0.020 A 
HETATM   23  C36 MK1 B 902      16.505  18.097  10.946  1.00 44.71     0.001 A 
ENDBRANCH  17  18
ENDBRANCH   7  17
ENDBRANCH   3   4
ENDBRANCH   2   3
BRANCH   2  24
HETATM   24  C12 MK1 B 902      12.522  22.366   5.407  1.00 21.49     0.045 C 
BRANCH  24  25
HETATM   25  C13 MK1 B 902      11.183  23.109   5.514  1.00 26.89     0.088 C 
BRANCH  25  26
HETATM   26  C14 MK1 B 902      11.371  24.625   5.701  1.00 28.67     0.036 C 
BRANCH  26  27
HETATM   27  C15 MK1 B 902      11.171  25.052   7.109  1.00 26.89    -0.022 A 
HETATM   28  C16 MK1 B 902      12.213  25.534   7.904  1.00 29.22    -0.004 A 
HETATM   29  C17 MK1 B 902      11.988  25.887   9.226  1.00 29.22    -0.000 A 
HETATM   30  C18 MK1 B 902      10.699  25.751   9.748  1.00 30.97    -0.000 A 
HETATM   31  C19 MK1 B 902       9.650  25.277   8.951  1.00 29.25    -0.000 A 
HETATM   32  C20 MK1 B 902       9.892  24.925   7.624  1.00 29.96    -0.004 A 
ENDBRANCH  26  27
ENDBRANCH  25  26
BRANCH  25  33
HETATM   33  C21 MK1 B 902      10.296  22.869   4.298  1.00 29.35     0.252 C 
HETATM   34  O3  MK1 B 902      10.604  22.019   3.449  1.00 32.66    -0.271 OA
HETATM   35  N4  MK1 B 902       9.270  23.705   4.167  1.00 31.19    -0.233 NA
BRANCH  35  36
HETATM   36  C22 MK1 B 902       8.538  23.823   2.917  1.00 29.22     0.159 C 
HETATM   37  C23 MK1 B 902       8.806  25.148   2.224  1.00 28.82     0.183 C 
HETATM   38  O4  MK1 B 902       9.009  26.174   3.184  1.00 28.32    -0.221 OA
HETATM   39  C24 MK1 B 902       7.611  25.376   1.326  1.00 32.05     0.061 C 
HETATM   40  C25 MK1 B 902       6.370  24.764   1.929  1.00 31.29    -0.022 A 
HETATM   41  C26 MK1 B 902       5.008  24.908   1.803  1.00 32.00    -0.004 A 
HETATM   42  C30 MK1 B 902       6.988  23.779   2.962  1.00 31.86    -0.001 A 
HETATM   43  C27 MK1 B 902       4.181  24.131   2.621  1.00 28.00    -0.000 A 
HETATM   44  C28 MK1 B 902       4.727  23.228   3.546  1.00 29.01    -0.000 A 
HETATM   45  C29 MK1 B 902       6.097  23.071   3.705  1.00 27.70    -0.003 A 
ENDBRANCH  35  36
ENDBRANCH  25  33
ENDBRANCH  24  25
ENDBRANCH   2  24
TORSDOF 12
ENDMDL
MODEL 4
REMARK VINA RESULT:   -10.193      1.985     10.840
REMARK INTER + INTRA:         -18.958
REMARK INTER:                 -17.311
REMARK INTRA:                  -1.647
REMARK UNBOUND:                -1.614
REMARK  12 active torsions:
REMARK  status: ('A' for Active; 'I' for Inactive)
REMARK    1  A    between atoms: N1_2  and  C31_40 
REMARK    2  A    between atoms: C2_4  and  C3_7 
REMARK       I    between atoms: N2_5  and  C3_7 
REMARK    3  A    between atoms: N2_5  and  C4_10 
REMARK    4  A    between atoms: N3_8  and  C10_19 
REMARK       I    between atoms: N4_11  and  C21_30 
REMARK    5  A    between atoms: N4_11  and  C22_31 
REMARK    6  A    between atoms: C10_19  and  C11_20 
REMARK    7  A    between atoms: C11_20  and  C12_21 
REMARK    8  A    between atoms: C12_21  and  C13_22 
REMARK    9  A    between atoms: C13_22  and  C14_23 
REMARK   10  A    between atoms: C13_22  and  C21_30 
REMARK   11  A    between atoms: C14_23  and  C15_24 
REMARK   12  A    between atoms: C31_40  and  C32_41 
ROOT
HETATM    1  O2  MK1 B 902      11.709  23.914   2.176  1.00 15.87    -0.221 OA
HETATM    2  C11 MK1 B 902      11.536  23.243   3.388  1.00 21.68     0.174 C 
ENDROOT
BRANCH   2   3
HETATM    3  C10 MK1 B 902      12.741  22.319   3.209  1.00 20.86     0.131 C 
BRANCH   3   4
HETATM    4  N3  MK1 B 902      13.574  22.194   4.389  1.00 28.91    -0.357 N 
HETATM    5  C2  MK1 B 902      15.027  21.861   4.182  1.00 27.27     0.192 C 
HETATM    6  C1  MK1 B 902      15.560  21.921   5.600  1.00 30.30     0.282 C 
HETATM    7  N1  MK1 B 902      15.441  23.157   6.420  1.00 28.25     0.146 N 
HETATM    8  C9  MK1 B 902      14.081  23.417   6.585  1.00 27.47     0.274 C 
HETATM    9  C8  MK1 B 902      13.211  23.261   5.355  1.00 26.24     0.133 C 
BRANCH   5  10
HETATM   10  C3  MK1 B 902      15.245  20.471   3.651  1.00 28.85     0.273 C 
HETATM   11  O1  MK1 B 902      14.714  20.118   2.606  1.00 29.59    -0.269 OA
HETATM   12  N2  MK1 B 902      16.009  19.670   4.368  1.00 22.29    -0.240 NA
BRANCH  12  13
HETATM   13  C4  MK1 B 902      16.456  18.340   4.105  1.00 23.47     0.088 C 
HETATM   14  C5  MK1 B 902      17.563  18.027   5.129  1.00 27.66     0.025 C 
HETATM   15  C6  MK1 B 902      16.929  18.163   2.814  1.00 21.71     0.025 C 
HETATM   16  C7  MK1 B 902      15.431  17.319   4.347  1.00 22.75     0.025 C 
ENDBRANCH  12  13
ENDBRANCH   5  10
BRANCH   7  17
HETATM   17  C31 MK1 B 902      16.234  23.224   7.653  1.00 36.25     0.278 C 
BRANCH  17  18
HETATM   18  C32 MK1 B 902      16.454  21.986   8.530  1.00 42.75     0.030 A 
HETATM   19  C33 MK1 B 902      17.599  21.181   8.444  1.00 47.41     0.097 A 
HETATM   20  N5  MK1 B 902      17.879  20.047   9.225  1.00 51.38    -0.243 NA
HETATM   21  C34 MK1 B 902      16.849  19.804  10.131  1.00 50.60     0.099 A 
HETATM   22  C35 MK1 B 902      15.683  20.564  10.268  1.00 49.34     0.020 A 
HETATM   23  C36 MK1 B 902      15.480  21.676   9.455  1.00 44.71     0.001 A 
ENDBRANCH  17  18
ENDBRANCH   7  17
ENDBRANCH   3   4
ENDBRANCH   2   3
BRANCH   2  24
HETATM   24  C12 MK1 B 902      10.077  22.758   3.460  1.00 21.49     0.045 C 
BRANCH  24  25
HETATM   25  C13 MK1 B 902       8.915  23.738   3.249  1.00 26.89     0.088 C 
BRANCH  25  26
HETATM   26  C14 MK1 B 902       7.550  23.103   3.569  1.00 28.67     0.036 C 
BRANCH  26  27
HETATM   27  C15 MK1 B 902       6.427  23.801   2.895  1.00 26.89    -0.022 A 
HETATM   28  C16 MK1 B 902       6.499  24.238   1.570  1.00 29.22    -0.004 A 
HETATM   29  C17 MK1 B 902       5.439  24.919   0.992  1.00 29.22    -0.000 A 
HETATM   30  C18 MK1 B 902       4.297  25.162   1.759  1.00 30.97    -0.000 A 
HETATM   31  C19 MK1 B 902       4.218  24.718   3.085  1.00 29.25    -0.000 A 
HETATM   32  C20 MK1 B 902       5.292  24.034   3.652  1.00 29.96    -0.004 A 
ENDBRANCH  26  27
ENDBRANCH  25  26
BRANCH  25  33
HETATM   33  C21 MK1 B 902       9.076  25.005   4.082  1.00 29.35     0.252 C 
HETATM   34  O3  MK1 B 902       8.945  26.123   3.563  1.00 32.66    -0.271 OA
HETATM   35  N4  MK1 B 902       9.479  24.814   5.336  1.00 31.19    -0.233 NA
BRANCH  35  36
HETATM   36  C22 MK1 B 902       9.991  25.908   6.145  1.00 29.22     0.159 C 
HETATM   37  C23 MK1 B 902      11.008  25.431   7.167  1.00 28.82     0.183 C 
HETATM   38  O4  MK1 B 902      10.677  24.127   7.621  1.00 28.32    -0.221 OA
HETATM   39  C24 MK1 B 902      10.999  26.480   8.256  1.00 32.05     0.061 C 
HETATM   40  C25 MK1 B 902       9.630  27.102   8.382  1.00 31.29    -0.022 A 
HETATM   41  C26 MK1 B 902       8.922  27.804   9.329  1.00 32.00    -0.004 A 
HETATM   42  C30 MK1 B 902       8.991  26.709   7.020  1.00 31.86    -0.001 A 
HETATM   43  C27 MK1 B 902       7.605  28.174   9.033  1.00 28.00    -0.000 A 
HETATM   44  C28 MK1 B 902       7.023  27.837   7.802  1.00 29.01    -0.000 A 
HETATM   45  C29 MK1 B 902       7.709  27.119   6.832  1.00 27.70    -0.003 A 
ENDBRANCH  35  36
ENDBRANCH  25  33
ENDBRANCH  24  25
ENDBRANCH   2  24
TORSDOF 12
ENDMDL
MODEL 5
REMARK VINA RESULT:    -9.899      2.033     10.462
REMARK INTER + INTRA:         -18.458
REMARK INTER:                 -16.668
REMARK INTRA:                  -1.790
REMARK UNBOUND:                -1.614
REMARK  12 active torsions:
REMARK  status: ('A' for Active; 'I' for Inactive)
REMARK    1  A    between atoms: N1_2  and  C31_40 
REMARK    2  A    between atoms: C2_4  and  C3_7 
REMARK       I    between atoms: N2_5  and  C3_7 
REMARK    3  A    between atoms: N2_5  and  C4_10 
REMARK    4  A    between atoms: N3_8  and  C10_19 
REMARK       I    between atoms: N4_11  and  C21_30 
REMARK    5  A    between atoms: N4_11  and  C22_31 
REMARK    6  A    between atoms: C10_19  and  C11_20 
REMARK    7  A    between atoms: C11_20  and  C12_21 
REMARK    8  A    between atoms: C12_21  and  C13_22 
REMARK    9  A    between atoms: C13_22  and  C14_23 
REMARK   10  A    between atoms: C13_22  and  C21_30 
REMARK   11  A    between atoms: C14_23  and  C15_24 
REMARK   12  A    between atoms: C31_40  and  C32_41 
ROOT
HETATM    1  O2  MK1 B 902      10.929  23.039   2.695  1.00 15.87    -0.221 OA
HETATM    2  C11 MK1 B 902      11.835  23.567   3.617  1.00 21.68     0.174 C 
ENDROOT
BRANCH   2   3
HETATM    3  C10 MK1 B 902      11.760  22.382   4.580  1.00 20.86     0.131 C 
BRANCH   3   4
HETATM    4  N3  MK1 B 902      12.902  22.263   5.464  1.00 28.91    -0.357 N 
HETATM    5  C2  MK1 B 902      14.270  22.443   4.861  1.00 27.27     0.192 C 
HETATM    6  C1  MK1 B 902      15.159  22.353   6.086  1.00 30.30     0.282 C 
HETATM    7  N1  MK1 B 902      14.992  23.284   7.234  1.00 28.25     0.146 N 
HETATM    8  C9  MK1 B 902      13.717  23.074   7.757  1.00 27.47     0.274 C 
HETATM    9  C8  MK1 B 902      12.592  22.932   6.752  1.00 26.24     0.133 C 
BRANCH   5  10
HETATM   10  C3  MK1 B 902      14.649  21.336   3.917  1.00 28.85     0.273 C 
HETATM   11  O1  MK1 B 902      14.507  21.478   2.708  1.00 29.59    -0.269 OA
HETATM   12  N2  MK1 B 902      15.117  20.226   4.453  1.00 22.29    -0.240 NA
BRANCH  12  13
HETATM   13  C4  MK1 B 902      15.619  19.041   3.835  1.00 23.47     0.088 C 
HETATM   14  C5  MK1 B 902      15.085  17.848   4.649  1.00 27.66     0.025 C 
HETATM   15  C6  MK1 B 902      17.003  18.999   3.770  1.00 21.71     0.025 C 
HETATM   16  C7  MK1 B 902      15.103  18.822   2.480  1.00 22.75     0.025 C 
ENDBRANCH  12  13
ENDBRANCH   5  10
BRANCH   7  17
HETATM   17  C31 MK1 B 902      16.067  23.320   8.232  1.00 36.25     0.278 C 
BRANCH  17  18
HETATM   18  C32 MK1 B 902      16.714  22.032   8.756  1.00 42.75     0.030 A 
HETATM   19  C33 MK1 B 902      18.041  21.675   8.476  1.00 47.41     0.097 A 
HETATM   20  N5  MK1 B 902      18.707  20.526   8.935  1.00 51.38    -0.243 NA
HETATM   21  C34 MK1 B 902      17.866  19.752   9.733  1.00 50.60     0.099 A 
HETATM   22  C35 MK1 B 902      16.537  20.049  10.050  1.00 49.34     0.020 A 
HETATM   23  C36 MK1 B 902      15.949  21.211   9.555  1.00 44.71     0.001 A 
ENDBRANCH  17  18
ENDBRANCH   7  17
ENDBRANCH   3   4
ENDBRANCH   2   3
BRANCH   2  24
HETATM   24  C12 MK1 B 902      11.380  24.996   3.967  1.00 21.49     0.045 C 
BRANCH  24  25
HETATM   25  C13 MK1 B 902      10.104  25.231   4.788  1.00 26.89     0.088 C 
BRANCH  25  26
HETATM   26  C14 MK1 B 902      10.197  26.496   5.660  1.00 28.67     0.036 C 
BRANCH  26  27
HETATM   27  C15 MK1 B 902      10.253  26.184   7.110  1.00 26.89    -0.022 A 
HETATM   28  C16 MK1 B 902      11.451  26.156   7.828  1.00 29.22    -0.004 A 
HETATM   29  C17 MK1 B 902      11.460  25.823   9.174  1.00 29.22    -0.000 A 
HETATM   30  C18 MK1 B 902      10.249  25.516   9.799  1.00 30.97    -0.000 A 
HETATM   31  C19 MK1 B 902       9.046  25.551   9.085  1.00 29.25    -0.000 A 
HETATM   32  C20 MK1 B 902       9.052  25.888   7.731  1.00 29.96    -0.004 A 
ENDBRANCH  26  27
ENDBRANCH  25  26
BRANCH  25  33
HETATM   33  C21 MK1 B 902       8.865  25.329   3.907  1.00 29.35     0.252 C 
HETATM   34  O3  MK1 B 902       8.967  25.609   2.703  1.00 32.66    -0.271 OA
HETATM   35  N4  MK1 B 902       7.703  25.219   4.544  1.00 31.19    -0.233 NA
BRANCH  35  36
HETATM   36  C22 MK1 B 902       6.451  25.613   3.919  1.00 29.22     0.159 C 
HETATM   37  C23 MK1 B 902       5.812  26.798   4.622  1.00 28.82     0.183 C 
HETATM   38  O4  MK1 B 902       6.082  26.748   6.015  1.00 28.32    -0.221 OA
HETATM   39  C24 MK1 B 902       4.342  26.719   4.278  1.00 32.05     0.061 C 
HETATM   40  C25 MK1 B 902       3.917  25.283   4.093  1.00 31.29    -0.022 A 
HETATM   41  C26 MK1 B 902       2.744  24.566   4.114  1.00 32.00    -0.004 A 
HETATM   42  C30 MK1 B 902       5.290  24.585   3.878  1.00 31.86    -0.001 A 
HETATM   43  C27 MK1 B 902       2.811  23.181   3.922  1.00 28.00    -0.000 A 
HETATM   44  C28 MK1 B 902       4.042  22.543   3.713  1.00 29.01    -0.000 A 
HETATM   45  C29 MK1 B 902       5.243  23.238   3.699  1.00 27.70    -0.003 A 
ENDBRANCH  35  36
ENDBRANCH  25  33
ENDBRANCH  24  25
ENDBRANCH   2  24
TORSDOF 12
ENDMDL
MODEL 6
REMARK VINA RESULT:    -9.709      2.021     10.131
REMARK INTER + INTRA:         -18.134
REMARK INTER:                 -16.923
REMARK INTRA:                  -1.210
REMARK UNBOUND:                -1.614
REMARK  12 active torsions:
REMARK  status: ('A' for Active; 'I' for Inactive)
REMARK    1  A    between atoms: N1_2  and  C31_40 
REMARK    2  A    between atoms: C2_4  and  C3_7 
REMARK       I    between atoms: N2_5  and  C3_7 
REMARK    3  A    between atoms: N2_5  and  C4_10 
REMARK    4  A    between atoms: N3_8  and  C10_19 
REMARK       I    between atoms: N4_11  and  C21_30 
REMARK    5  A    between atoms: N4_11  and  C22_31 
REMARK    6  A    between atoms: C10_19  and  C11_20 
REMARK    7  A    between atoms: C11_20  and  C12_21 
REMARK    8  A    between atoms: C12_21  and  C13_22 
REMARK    9  A    between atoms: C13_22  and  C14_23 
REMARK   10  A    between atoms: C13_22  and  C21_30 
REMARK   11  A    between atoms: C14_23  and  C15_24 
REMARK   12  A    between atoms: C31_40  and  C32_41 
ROOT
HETATM    1  O2  MK1 B 902      15.520  22.887   4.231  1.00 15.87    -0.221 OA
HETATM    2  C11 MK1 B 902      15.026  23.008   5.531  1.00 21.68     0.174 C 
ENDROOT
BRANCH   2   3
HETATM    3  C10 MK1 B 902      14.601  21.544   5.654  1.00 20.86     0.131 C 
BRANCH   3   4
HETATM    4  N3  MK1 B 902      15.369  20.782   6.618  1.00 28.91    -0.357 N 
HETATM    5  C2  MK1 B 902      16.729  20.295   6.193  1.00 27.27     0.192 C 
HETATM    6  C1  MK1 B 902      17.238  19.655   7.470  1.00 30.30     0.282 C 
HETATM    7  N1  MK1 B 902      17.358  20.434   8.731  1.00 28.25     0.146 N 
HETATM    8  C9  MK1 B 902      16.076  20.857   9.082  1.00 27.47     0.274 C 
HETATM    9  C8  MK1 B 902      15.214  21.398   7.960  1.00 26.24     0.133 C 
BRANCH   5  10
HETATM   10  C3  MK1 B 902      16.669  19.238   5.124  1.00 28.85     0.273 C 
HETATM   11  O1  MK1 B 902      17.188  18.144   5.307  1.00 29.59    -0.269 OA
HETATM   12  N2  MK1 B 902      16.054  19.556   4.002  1.00 22.29    -0.240 NA
BRANCH  12  13
HETATM   13  C4  MK1 B 902      15.774  18.766   2.846  1.00 23.47     0.088 C 
HETATM   14  C5  MK1 B 902      15.076  19.689   1.830  1.00 27.66     0.025 C 
HETATM   15  C6  MK1 B 902      14.983  17.660   3.114  1.00 21.71     0.025 C 
HETATM   16  C7  MK1 B 902      16.976  18.296   2.152  1.00 22.75     0.025 C 
ENDBRANCH  12  13
ENDBRANCH   5  10
BRANCH   7  17
HETATM   17  C31 MK1 B 902      18.126  19.828   9.825  1.00 36.25     0.278 C 
BRANCH  17  18
HETATM   18  C32 MK1 B 902      17.960  18.350  10.194  1.00 42.75     0.030 A 
HETATM   19  C33 MK1 B 902      18.839  17.348   9.756  1.00 47.41     0.097 A 
HETATM   20  N5  MK1 B 902      18.764  15.981  10.068  1.00 51.38    -0.243 NA
HETATM   21  C34 MK1 B 902      17.673  15.722  10.897  1.00 50.60     0.099 A 
HETATM   22  C35 MK1 B 902      16.761  16.670  11.368  1.00 49.34     0.020 A 
HETATM   23  C36 MK1 B 902      16.906  18.009  11.013  1.00 44.71     0.001 A 
ENDBRANCH  17  18
ENDBRANCH   7  17
ENDBRANCH   3   4
ENDBRANCH   2   3
BRANCH   2  24
HETATM   24  C12 MK1 B 902      14.050  24.198   5.560  1.00 21.49     0.045 C 
BRANCH  24  25
HETATM   25  C13 MK1 B 902      12.982  24.306   6.658  1.00 26.89     0.088 C 
BRANCH  25  26
HETATM   26  C14 MK1 B 902      12.642  25.768   6.998  1.00 28.67     0.036 C 
BRANCH  26  27
HETATM   27  C15 MK1 B 902      11.395  25.889   7.796  1.00 26.89    -0.022 A 
HETATM   28  C16 MK1 B 902      11.304  25.458   9.120  1.00 29.22    -0.004 A 
HETATM   29  C17 MK1 B 902      10.109  25.558   9.816  1.00 29.22    -0.000 A 
HETATM   30  C18 MK1 B 902       8.996  26.097   9.166  1.00 30.97    -0.000 A 
HETATM   31  C19 MK1 B 902       9.085  26.539   7.841  1.00 29.25    -0.000 A 
HETATM   32  C20 MK1 B 902      10.295  26.432   7.155  1.00 29.96    -0.004 A 
ENDBRANCH  26  27
ENDBRANCH  25  26
BRANCH  25  33
HETATM   33  C21 MK1 B 902      11.699  23.575   6.283  1.00 29.35     0.252 C 
HETATM   34  O3  MK1 B 902      11.353  22.552   6.892  1.00 32.66    -0.271 OA
HETATM   35  N4  MK1 B 902      11.073  24.040   5.204  1.00 31.19    -0.233 NA
BRANCH  35  36
HETATM   36  C22 MK1 B 902      10.042  23.269   4.532  1.00 29.22     0.159 C 
HETATM   37  C23 MK1 B 902      10.603  22.447   3.384  1.00 28.82     0.183 C 
HETATM   38  O4  MK1 B 902      11.681  23.135   2.767  1.00 28.32    -0.221 OA
HETATM   39  C24 MK1 B 902       9.429  22.196   2.464  1.00 32.05     0.061 C 
HETATM   40  C25 MK1 B 902       8.453  23.345   2.524  1.00 31.29    -0.022 A 
HETATM   41  C26 MK1 B 902       7.445  23.857   1.740  1.00 32.00    -0.004 A 
HETATM   42  C30 MK1 B 902       8.873  24.032   3.854  1.00 31.86    -0.001 A 
HETATM   43  C27 MK1 B 902       6.790  25.014   2.176  1.00 28.00    -0.000 A 
HETATM   44  C28 MK1 B 902       7.152  25.634   3.381  1.00 29.01    -0.000 A 
HETATM   45  C29 MK1 B 902       8.172  25.148   4.187  1.00 27.70    -0.003 A 
ENDBRANCH  35  36
ENDBRANCH  25  33
ENDBRANCH  24  25
ENDBRANCH   2  24
TORSDOF 12
ENDMDL
MODEL 7
REMARK VINA RESULT:    -9.206      2.921     10.830
REMARK INTER + INTRA:         -17.278
REMARK INTER:                 -15.830
REMARK INTRA:                  -1.448
REMARK UNBOUND:                -1.614
REMARK  12 active torsions:
REMARK  status: ('A' for Active; 'I' for Inactive)
REMARK    1  A    between atoms: N1_2  and  C31_40 
REMARK    2  A    between atoms: C2_4  and  C3_7 
REMARK       I    between atoms: N2_5  and  C3_7 
REMARK    3  A    between atoms: N2_5  and  C4_10 
REMARK    4  A    between atoms: N3_8  and  C10_19 
REMARK       I    between atoms: N4_11  and  C21_30 
REMARK    5  A    between atoms: N4_11  and  C22_31 
REMARK    6  A    between atoms: C10_19  and  C11_20 
REMARK    7  A    between atoms: C11_20  and  C12_21 
REMARK    8  A    between atoms: C12_21  and  C13_22 
REMARK    9  A    between atoms: C13_22  and  C14_23 
REMARK   10  A    between atoms: C13_22  and  C21_30 
REMARK   11  A    between atoms: C14_23  and  C15_24 
REMARK   12  A    between atoms: C31_40  and  C32_41 
ROOT
HETATM    1  O2  MK1 B 902      16.527  23.274   8.951  1.00 15.87    -0.221 OA
HETATM    2  C11 MK1 B 902      16.290  22.160   8.143  1.00 21.68     0.174 C 
ENDROOT
BRANCH   2   3
HETATM    3  C10 MK1 B 902      17.667  21.533   8.364  1.00 20.86     0.131 C 
BRANCH   3   4
HETATM    4  N3  MK1 B 902      17.627  20.147   8.786  1.00 28.91    -0.357 N 
HETATM    5  C2  MK1 B 902      18.739  19.246   8.319  1.00 27.27     0.192 C 
HETATM    6  C1  MK1 B 902      18.406  17.951   9.035  1.00 30.30     0.282 C 
HETATM    7  N1  MK1 B 902      18.301  17.891  10.517  1.00 28.25     0.146 N 
HETATM    8  C9  MK1 B 902      17.259  18.736  10.895  1.00 27.47     0.274 C 
HETATM    9  C8  MK1 B 902      17.199  20.084  10.206  1.00 26.24     0.133 C 
BRANCH   5  10
HETATM   10  C3  MK1 B 902      18.709  18.990   6.837  1.00 28.85     0.273 C 
HETATM   11  O1  MK1 B 902      18.754  19.925   6.047  1.00 29.59    -0.269 OA
HETATM   12  N2  MK1 B 902      18.619  17.734   6.449  1.00 22.29    -0.240 NA
BRANCH  12  13
HETATM   13  C4  MK1 B 902      18.637  17.168   5.138  1.00 23.47     0.088 C 
HETATM   14  C5  MK1 B 902      19.940  16.355   5.017  1.00 27.66     0.025 C 
HETATM   15  C6  MK1 B 902      18.566  18.116   4.129  1.00 21.71     0.025 C 
HETATM   16  C7  MK1 B 902      17.570  16.190   4.906  1.00 22.75     0.025 C 
ENDBRANCH  12  13
ENDBRANCH   5  10
BRANCH   7  17
HETATM   17  C31 MK1 B 902      18.269  16.560  11.135  1.00 36.25     0.278 C 
BRANCH  17  18
HETATM   18  C32 MK1 B 902      17.105  16.124  12.032  1.00 42.75     0.030 A 
HETATM   19  C33 MK1 B 902      15.786  16.004  11.569  1.00 47.41     0.097 A 
HETATM   20  N5  MK1 B 902      14.674  15.593  12.323  1.00 51.38    -0.243 NA
HETATM   21  C34 MK1 B 902      15.046  15.304  13.635  1.00 50.60     0.099 A 
HETATM   22  C35 MK1 B 902      16.338  15.402  14.160  1.00 49.34     0.020 A 
HETATM   23  C36 MK1 B 902      17.388  15.818  13.345  1.00 44.71     0.001 A 
ENDBRANCH  17  18
ENDBRANCH   7  17
ENDBRANCH   3   4
ENDBRANCH   2   3
BRANCH   2  24
HETATM   24  C12 MK1 B 902      15.776  22.660   6.781  1.00 21.49     0.045 C 
BRANCH  24  25
HETATM   25  C13 MK1 B 902      14.705  21.874   6.012  1.00 26.89     0.088 C 
BRANCH  25  26
HETATM   26  C14 MK1 B 902      14.924  20.353   6.098  1.00 28.67     0.036 C 
BRANCH  26  27
HETATM   27  C15 MK1 B 902      14.945  19.707   4.761  1.00 26.89    -0.022 A 
HETATM   28  C16 MK1 B 902      15.003  20.438   3.573  1.00 29.22    -0.004 A 
HETATM   29  C17 MK1 B 902      14.985  19.794   2.345  1.00 29.22    -0.000 A 
HETATM   30  C18 MK1 B 902      14.906  18.400   2.318  1.00 30.97    -0.000 A 
HETATM   31  C19 MK1 B 902      14.856  17.663   3.507  1.00 29.25    -0.000 A 
HETATM   32  C20 MK1 B 902      14.876  18.325   4.734  1.00 29.96    -0.004 A 
ENDBRANCH  26  27
ENDBRANCH  25  26
BRANCH  25  33
HETATM   33  C21 MK1 B 902      13.297  22.197   6.500  1.00 29.35     0.252 C 
HETATM   34  O3  MK1 B 902      12.461  21.295   6.659  1.00 32.66    -0.271 OA
HETATM   35  N4  MK1 B 902      13.017  23.492   6.613  1.00 31.19    -0.233 NA
BRANCH  35  36
HETATM   36  C22 MK1 B 902      11.649  23.966   6.742  1.00 29.22     0.159 C 
HETATM   37  C23 MK1 B 902      11.062  24.381   5.403  1.00 28.82     0.183 C 
HETATM   38  O4  MK1 B 902      12.073  24.932   4.572  1.00 28.32    -0.221 OA
HETATM   39  C24 MK1 B 902       9.950  25.349   5.739  1.00 32.05     0.061 C 
HETATM   40  C25 MK1 B 902      10.274  26.112   7.000  1.00 31.29    -0.022 A 
HETATM   41  C26 MK1 B 902       9.880  27.285   7.600  1.00 32.00    -0.004 A 
HETATM   42  C30 MK1 B 902      11.380  25.215   7.623  1.00 31.86    -0.001 A 
HETATM   43  C27 MK1 B 902      10.493  27.651   8.804  1.00 28.00    -0.000 A 
HETATM   44  C28 MK1 B 902      11.482  26.842   9.383  1.00 29.01    -0.000 A 
HETATM   45  C29 MK1 B 902      11.908  25.660   8.794  1.00 27.70    -0.003 A 
ENDBRANCH  35  36
ENDBRANCH  25  33
ENDBRANCH  24  25
ENDBRANCH   2  24
TORSDOF 12
ENDMDL
MODEL 8
REMARK VINA RESULT:    -9.038      2.268      5.438
REMARK INTER + INTRA:         -16.992
REMARK INTER:                 -15.494
REMARK INTRA:                  -1.498
REMARK UNBOUND:                -1.614
REMARK  12 active torsions:
REMARK  status: ('A' for Active; 'I' for Inactive)
REMARK    1  A    between atoms: N1_2  and  C31_40 
REMARK    2  A    between atoms: C2_4  and  C3_7 
REMARK       I    between atoms: N2_5  and  C3_7 
REMARK    3  A    between atoms: N2_5  and  C4_10 
REMARK    4  A    between atoms: N3_8  and  C10_19 
REMARK       I    between atoms: N4_11  and  C21_30 
REMARK    5  A    between atoms: N4_11  and  C22_31 
REMARK    6  A    between atoms: C10_19  and  C11_20 
REMARK    7  A    between atoms: C11_20  and  C12_21 
REMARK    8  A    between atoms: C12_21  and  C13_22 
REMARK    9  A    between atoms: C13_22  and  C14_23 
REMARK   10  A    between atoms: C13_22  and  C21_30 
REMARK   11  A    between atoms: C14_23  and  C15_24 
REMARK   12  A    between atoms: C31_40  and  C32_41 
ROOT
HETATM    1  O2  MK1 B 902      13.847  21.549   7.518  1.00 15.87    -0.221 OA
HETATM    2  C11 MK1 B 902      14.686  22.497   8.106  1.00 21.68     0.174 C 
ENDROOT
BRANCH   2   3
HETATM    3  C10 MK1 B 902      14.667  23.457   6.916  1.00 20.86     0.131 C 
BRANCH   3   4
HETATM    4  N3  MK1 B 902      13.560  23.250   6.004  1.00 28.91    -0.357 N 
HETATM    5  C2  MK1 B 902      12.533  24.346   5.898  1.00 27.27     0.192 C 
HETATM    6  C1  MK1 B 902      11.629  23.814   4.803  1.00 30.30     0.282 C 
HETATM    7  N1  MK1 B 902      12.159  23.491   3.451  1.00 28.25     0.146 N 
HETATM    8  C9  MK1 B 902      13.098  22.472   3.604  1.00 27.47     0.274 C 
HETATM    9  C8  MK1 B 902      14.066  22.617   4.760  1.00 26.24     0.133 C 
BRANCH   5  10
HETATM   10  C3  MK1 B 902      11.715  24.512   7.149  1.00 28.85     0.273 C 
HETATM   11  O1  MK1 B 902      11.317  23.529   7.762  1.00 29.59    -0.269 OA
HETATM   12  N2  MK1 B 902      11.447  25.745   7.529  1.00 22.29    -0.240 NA
BRANCH  12  13
HETATM   13  C4  MK1 B 902      10.766  26.228   8.687  1.00 23.47     0.088 C 
HETATM   14  C5  MK1 B 902      11.743  26.095   9.871  1.00 27.66     0.025 C 
HETATM   15  C6  MK1 B 902       9.588  25.548   8.956  1.00 21.71     0.025 C 
HETATM   16  C7  MK1 B 902      10.452  27.659   8.629  1.00 22.75     0.025 C 
ENDBRANCH  12  13
ENDBRANCH   5  10
BRANCH   7  17
HETATM   17  C31 MK1 B 902      11.179  23.267   2.381  1.00 36.25     0.278 C 
BRANCH  17  18
HETATM   18  C32 MK1 B 902       9.841  24.016   2.354  1.00 42.75     0.030 A 
HETATM   19  C33 MK1 B 902       9.742  25.399   2.144  1.00 47.41     0.097 A 
HETATM   20  N5  MK1 B 902       8.556  26.149   2.087  1.00 51.38    -0.243 NA
HETATM   21  C34 MK1 B 902       7.443  25.329   2.268  1.00 50.60     0.099 A 
HETATM   22  C35 MK1 B 902       7.471  23.948   2.481  1.00 49.34     0.020 A 
HETATM   23  C36 MK1 B 902       8.691  23.276   2.524  1.00 44.71     0.001 A 
ENDBRANCH  17  18
ENDBRANCH   7  17
ENDBRANCH   3   4
ENDBRANCH   2   3
BRANCH   2  24
HETATM   24  C12 MK1 B 902      15.946  21.770   8.611  1.00 21.49     0.045 C 
BRANCH  24  25
HETATM   25  C13 MK1 B 902      16.424  20.476   7.939  1.00 26.89     0.088 C 
BRANCH  25  26
HETATM   26  C14 MK1 B 902      16.911  20.712   6.498  1.00 28.67     0.036 C 
BRANCH  26  27
HETATM   27  C15 MK1 B 902      16.629  19.559   5.607  1.00 26.89    -0.022 A 
HETATM   28  C16 MK1 B 902      17.636  18.857   4.942  1.00 29.22    -0.004 A 
HETATM   29  C17 MK1 B 902      17.324  17.808   4.091  1.00 29.22    -0.000 A 
HETATM   30  C18 MK1 B 902      15.981  17.466   3.909  1.00 30.97    -0.000 A 
HETATM   31  C19 MK1 B 902      14.969  18.162   4.581  1.00 29.25    -0.000 A 
HETATM   32  C20 MK1 B 902      15.299  19.214   5.434  1.00 29.96    -0.004 A 
ENDBRANCH  26  27
ENDBRANCH  25  26
BRANCH  25  33
HETATM   33  C21 MK1 B 902      17.535  19.796   8.730  1.00 29.35     0.252 C 
HETATM   34  O3  MK1 B 902      18.720  19.915   8.383  1.00 32.66    -0.271 OA
HETATM   35  N4  MK1 B 902      17.128  18.993   9.709  1.00 31.19    -0.233 NA
BRANCH  35  36
HETATM   36  C22 MK1 B 902      18.026  18.033  10.329  1.00 29.22     0.159 C 
HETATM   37  C23 MK1 B 902      17.296  16.781  10.783  1.00 28.82     0.183 C 
HETATM   38  O4  MK1 B 902      15.981  17.105  11.209  1.00 28.32    -0.221 OA
HETATM   39  C24 MK1 B 902      18.164  16.187  11.869  1.00 32.05     0.061 C 
HETATM   40  C25 MK1 B 902      18.901  17.272  12.613  1.00 31.29    -0.022 A 
HETATM   41  C26 MK1 B 902      19.522  17.420  13.831  1.00 32.00    -0.004 A 
HETATM   42  C30 MK1 B 902      18.788  18.457  11.613  1.00 31.86    -0.001 A 
HETATM   43  C27 MK1 B 902      20.069  18.668  14.149  1.00 28.00    -0.000 A 
HETATM   44  C28 MK1 B 902      19.986  19.740  13.248  1.00 29.01    -0.000 A 
HETATM   45  C29 MK1 B 902      19.354  19.625  12.017  1.00 27.70    -0.003 A 
ENDBRANCH  35  36
ENDBRANCH  25  33
ENDBRANCH  24  25
ENDBRANCH   2  24
TORSDOF 12
ENDMDL
MODEL 9
REMARK VINA RESULT:    -8.982      2.595      6.106
REMARK INTER + INTRA:         -16.896
REMARK INTER:                 -15.492
REMARK INTRA:                  -1.404
REMARK UNBOUND:                -1.614
REMARK  12 active torsions:
REMARK  status: ('A' for Active; 'I' for Inactive)
REMARK    1  A    between atoms: N1_2  and  C31_40 
REMARK    2  A    between atoms: C2_4  and  C3_7 
REMARK       I    between atoms: N2_5  and  C3_7 
REMARK    3  A    between atoms: N2_5  and  C4_10 
REMARK    4  A    between atoms: N3_8  and  C10_19 
REMARK       I    between atoms: N4_11  and  C21_30 
REMARK    5  A    between atoms: N4_11  and  C22_31 
REMARK    6  A    between atoms: C10_19  and  C11_20 
REMARK    7  A    between atoms: C11_20  and  C12_21 
REMARK    8  A    between atoms: C12_21  and  C13_22 
REMARK    9  A    between atoms: C13_22  and  C14_23 
REMARK   10  A    between atoms: C13_22  and  C21_30 
REMARK   11  A    between atoms: C14_23  and  C15_24 
REMARK   12  A    between atoms: C31_40  and  C32_41 
ROOT
HETATM    1  O2  MK1 B 902      10.149  25.273   2.102  1.00 15.87    -0.221 OA
HETATM    2  C11 MK1 B 902       9.548  24.427   3.035  1.00 21.68     0.174 C 
ENDROOT
BRANCH   2   3
HETATM    3  C10 MK1 B 902       8.512  25.449   3.503  1.00 20.86     0.131 C 
BRANCH   3   4
HETATM    4  N3  MK1 B 902       7.261  24.866   3.946  1.00 28.91    -0.357 N 
HETATM    5  C2  MK1 B 902       6.049  25.759   3.971  1.00 27.27     0.192 C 
HETATM    6  C1  MK1 B 902       4.959  24.785   4.375  1.00 30.30     0.282 C 
HETATM    7  N1  MK1 B 902       4.670  23.569   3.568  1.00 28.25     0.146 N 
HETATM    8  C9  MK1 B 902       5.818  22.778   3.580  1.00 27.47     0.274 C 
HETATM    9  C8  MK1 B 902       7.135  23.500   3.381  1.00 26.24     0.133 C 
BRANCH   5  10
HETATM   10  C3  MK1 B 902       6.132  26.838   5.016  1.00 28.85     0.273 C 
HETATM   11  O1  MK1 B 902       7.108  27.576   5.066  1.00 29.59    -0.269 OA
HETATM   12  N2  MK1 B 902       5.124  26.931   5.861  1.00 22.29    -0.240 NA
BRANCH  12  13
HETATM   13  C4  MK1 B 902       4.877  27.874   6.903  1.00 23.47     0.088 C 
HETATM   14  C5  MK1 B 902       6.132  27.898   7.796  1.00 27.66     0.025 C 
HETATM   15  C6  MK1 B 902       3.753  27.577   7.659  1.00 21.71     0.025 C 
HETATM   16  C7  MK1 B 902       4.740  29.254   6.425  1.00 22.75     0.025 C 
ENDBRANCH  12  13
ENDBRANCH   5  10
BRANCH   7  17
HETATM   17  C31 MK1 B 902       3.424  22.850   3.860  1.00 36.25     0.278 C 
BRANCH  17  18
HETATM   18  C32 MK1 B 902       3.351  21.320   3.794  1.00 42.75     0.030 A 
HETATM   19  C33 MK1 B 902       3.898  20.485   4.780  1.00 47.41     0.097 A 
HETATM   20  N5  MK1 B 902       3.854  19.081   4.799  1.00 51.38    -0.243 NA
HETATM   21  C34 MK1 B 902       3.176  18.592   3.683  1.00 50.60     0.099 A 
HETATM   22  C35 MK1 B 902       2.610  19.366   2.666  1.00 49.34     0.020 A 
HETATM   23  C36 MK1 B 902       2.696  20.755   2.722  1.00 44.71     0.001 A 
ENDBRANCH  17  18
ENDBRANCH   7  17
ENDBRANCH   3   4
ENDBRANCH   2   3
BRANCH   2  24
HETATM   24  C12 MK1 B 902      10.655  23.846   3.933  1.00 21.49     0.045 C 
BRANCH  24  25
HETATM   25  C13 MK1 B 902      11.114  24.594   5.193  1.00 26.89     0.088 C 
BRANCH  25  26
HETATM   26  C14 MK1 B 902      10.401  24.092   6.461  1.00 28.67     0.036 C 
BRANCH  26  27
HETATM   27  C15 MK1 B 902      10.066  25.195   7.398  1.00 26.89    -0.022 A 
HETATM   28  C16 MK1 B 902       9.684  24.967   8.721  1.00 29.22    -0.004 A 
HETATM   29  C17 MK1 B 902       9.345  26.026   9.551  1.00 29.22    -0.000 A 
HETATM   30  C18 MK1 B 902       9.392  27.324   9.038  1.00 30.97    -0.000 A 
HETATM   31  C19 MK1 B 902       9.784  27.557   7.714  1.00 29.25    -0.000 A 
HETATM   32  C20 MK1 B 902      10.122  26.482   6.892  1.00 29.96    -0.004 A 
ENDBRANCH  26  27
ENDBRANCH  25  26
BRANCH  25  33
HETATM   33  C21 MK1 B 902      12.620  24.495   5.402  1.00 29.35     0.252 C 
HETATM   34  O3  MK1 B 902      13.394  25.242   4.785  1.00 32.66    -0.271 OA
HETATM   35  N4  MK1 B 902      13.022  23.491   6.177  1.00 31.19    -0.233 NA
BRANCH  35  36
HETATM   36  C22 MK1 B 902      14.411  23.063   6.208  1.00 29.22     0.159 C 
HETATM   37  C23 MK1 B 902      14.708  22.017   5.146  1.00 28.82     0.183 C 
HETATM   38  O4  MK1 B 902      13.573  21.190   4.939  1.00 28.32    -0.221 OA
HETATM   39  C24 MK1 B 902      15.925  21.275   5.650  1.00 32.05     0.061 C 
HETATM   40  C25 MK1 B 902      15.939  21.240   7.158  1.00 31.29    -0.022 A 
HETATM   41  C26 MK1 B 902      16.528  20.487   8.146  1.00 32.00    -0.004 A 
HETATM   42  C30 MK1 B 902      14.947  22.388   7.498  1.00 31.86    -0.001 A 
HETATM   43  C27 MK1 B 902      16.225  20.787   9.479  1.00 28.00    -0.000 A 
HETATM   44  C28 MK1 B 902      15.342  21.830   9.797  1.00 29.01    -0.000 A 
HETATM   45  C29 MK1 B 902      14.722  22.599   8.822  1.00 27.70    -0.003 A 
ENDBRANCH  35  36
ENDBRANCH  25  33
ENDBRANCH  24  25
ENDBRANCH   2  24
TORSDOF 12
ENDMDL
