MODEL 1
REMARK VINA RESULT:   -10.621      0.000      0.000
REMARK INTER + INTRA:         -19.856
REMARK INTER:                 -18.072
REMARK INTRA:                  -1.784
REMARK UNBOUND:                -1.784
REMARK  12 active torsions:
REMARK  status: ('A' for Active; 'I' for Inactive)
REMARK    1  A    between atoms: N1_2  and  C31_40 
REMARK    2  A    between atoms: C2_4  and  C3_7 
REMARK       I    between atoms: N2_5  and  C3_7 
REMARK    3  A    between atoms: N2_5  and  C4_10 
REMARK    4  A    between atoms: N3_8  and  C10_19 
REMARK       I    between atoms: N4_11  and  C21_30 
REMARK    5  A    between atoms: N4_11  and  C22_31 
REMARK    6  A    between atoms: C10_19  and  C11_20 
REMARK    7  A    between atoms: C11_20  and  C12_21 
REMARK    8  A    between atoms: C12_21  and  C13_22 
REMARK    9  A    between atoms: C13_22  and  C14_23 
REMARK   10  A    between atoms: C13_22  and  C21_30 
REMARK   11  A    between atoms: C14_23  and  C15_24 
REMARK   12  A    between atoms: C31_40  and  C32_41 
ROOT
HETATM    1  O2  MK1 B 902      14.869  24.344   4.795  1.00 15.87    -0.221 OA
HETATM    2  C11 MK1 B 902      13.653  23.847   5.267  1.00 21.68     0.174 C 
ENDROOT
BRANCH   2   3
HETATM    3  C10 MK1 B 902      12.833  25.069   4.852  1.00 20.86     0.131 C 
BRANCH   3   4
HETATM    4  N3  MK1 B 902      11.481  24.761   4.430  1.00 28.91    -0.357 N 
HETATM    5  C2  MK1 B 902      10.357  25.501   5.104  1.00 27.27     0.192 C 
HETATM    6  C1  MK1 B 902       9.152  24.993   4.337  1.00 30.30     0.282 C 
HETATM    7  N1  MK1 B 902       9.047  25.159   2.863  1.00 28.25     0.146 N 
HETATM    8  C9  MK1 B 902      10.104  24.453   2.289  1.00 27.47     0.274 C 
HETATM    9  C8  MK1 B 902      11.456  24.607   2.954  1.00 26.24     0.133 C 
BRANCH   5  10
HETATM   10  C3  MK1 B 902      10.189  25.129   6.552  1.00 28.85     0.273 C 
HETATM   11  O1  MK1 B 902      10.254  23.956   6.900  1.00 29.59    -0.269 OA
HETATM   12  N2  MK1 B 902       9.961  26.112   7.400  1.00 22.29    -0.240 NA
BRANCH  12  13
HETATM   13  C4  MK1 B 902       9.827  26.095   8.821  1.00 23.47     0.088 C 
HETATM   14  C5  MK1 B 902       9.097  27.391   9.221  1.00 27.66     0.025 C 
HETATM   15  C6  MK1 B 902      11.040  26.001   9.486  1.00 21.71     0.025 C 
HETATM   16  C7  MK1 B 902       8.964  25.018   9.316  1.00 22.75     0.025 C 
ENDBRANCH  12  13
ENDBRANCH   5  10
BRANCH   7  17
HETATM   17  C31 MK1 B 902       7.736  24.909   2.250  1.00 36.25     0.278 C 
BRANCH  17  18
HETATM   18  C32 MK1 B 902       6.491  24.647   3.106  1.00 42.75     0.030 A 
HETATM   19  C33 MK1 B 902       5.739  25.673   3.696  1.00 47.41     0.097 A 
HETATM   20  N5  MK1 B 902       4.580  25.513   4.473  1.00 51.38    -0.243 NA
HETATM   21  C34 MK1 B 902       4.249  24.165   4.595  1.00 50.60     0.099 A 
HETATM   22  C35 MK1 B 902       4.953  23.095   4.034  1.00 49.34     0.020 A 
HETATM   23  C36 MK1 B 902       6.095  23.338   3.274  1.00 44.71     0.001 A 
ENDBRANCH  17  18
ENDBRANCH   7  17
ENDBRANCH   3   4
ENDBRANCH   2   3
BRANCH   2  24
HETATM   24  C12 MK1 B 902      13.856  23.397   6.725  1.00 21.49     0.045 C 
BRANCH  24  25
HETATM   25  C13 MK1 B 902      15.071  22.545   7.119  1.00 26.89     0.088 C 
BRANCH  25  26
HETATM   26  C14 MK1 B 902      15.154  22.314   8.638  1.00 28.67     0.036 C 
BRANCH  26  27
HETATM   27  C15 MK1 B 902      16.416  21.644   9.042  1.00 26.89    -0.022 A 
HETATM   28  C16 MK1 B 902      17.675  22.169   8.744  1.00 29.22    -0.004 A 
HETATM   29  C17 MK1 B 902      18.828  21.490   9.110  1.00 29.22    -0.000 A 
HETATM   30  C18 MK1 B 902      18.706  20.270   9.781  1.00 30.97    -0.000 A 
HETATM   31  C19 MK1 B 902      17.446  19.746  10.089  1.00 29.25    -0.000 A 
HETATM   32  C20 MK1 B 902      16.296  20.440   9.715  1.00 29.96    -0.004 A 
ENDBRANCH  26  27
ENDBRANCH  25  26
BRANCH  25  33
HETATM   33  C21 MK1 B 902      15.076  21.194   6.414  1.00 29.35     0.252 C 
HETATM   34  O3  MK1 B 902      14.039  20.519   6.335  1.00 32.66    -0.271 OA
HETATM   35  N4  MK1 B 902      16.271  20.762   6.019  1.00 31.19    -0.233 NA
BRANCH  35  36
HETATM   36  C22 MK1 B 902      16.492  19.376   5.640  1.00 29.22     0.159 C 
HETATM   37  C23 MK1 B 902      17.880  18.895   6.025  1.00 28.82     0.183 C 
HETATM   38  O4  MK1 B 902      18.816  19.958   5.923  1.00 28.32    -0.221 OA
HETATM   39  C24 MK1 B 902      18.169  17.734   5.100  1.00 32.05     0.061 C 
HETATM   40  C25 MK1 B 902      17.481  17.930   3.772  1.00 31.29    -0.022 A 
HETATM   41  C26 MK1 B 902      17.611  17.457   2.487  1.00 32.00    -0.004 A 
HETATM   42  C30 MK1 B 902      16.415  19.002   4.136  1.00 31.86    -0.001 A 
HETATM   43  C27 MK1 B 902      16.747  17.955   1.507  1.00 28.00    -0.000 A 
HETATM   44  C28 MK1 B 902      15.772  18.912   1.827  1.00 29.01    -0.000 A 
HETATM   45  C29 MK1 B 902      15.625  19.417   3.111  1.00 27.70    -0.003 A 
ENDBRANCH  35  36
ENDBRANCH  25  33
ENDBRANCH  24  25
ENDBRANCH   2  24
TORSDOF 12
ENDMDL
MODEL 2
REMARK VINA RESULT:   -10.156      2.063     10.427
REMARK INTER + INTRA:         -19.064
REMARK INTER:                 -16.935
REMARK INTRA:                  -2.129
REMARK UNBOUND:                -1.784
REMARK  12 active torsions:
REMARK  status: ('A' for Active; 'I' for Inactive)
REMARK    1  A    between atoms: N1_2  and  C31_40 
REMARK    2  A    between atoms: C2_4  and  C3_7 
REMARK       I    between atoms: N2_5  and  C3_7 
REMARK    3  A    between atoms: N2_5  and  C4_10 
REMARK    4  A    between atoms: N3_8  and  C10_19 
REMARK       I    between atoms: N4_11  and  C21_30 
REMARK    5  A    between atoms: N4_11  and  C22_31 
REMARK    6  A    between atoms: C10_19  and  C11_20 
REMARK    7  A    between atoms: C11_20  and  C12_21 
REMARK    8  A    between atoms: C12_21  and  C13_22 
REMARK    9  A    between atoms: C13_22  and  C14_23 
REMARK   10  A    between atoms: C13_22  and  C21_30 
REMARK   11  A    between atoms: C14_23  and  C15_24 
REMARK   12  A    between atoms: C31_40  and  C32_41 
ROOT
HETATM    1  O2  MK1 B 902      14.097  22.142   3.382  1.00 15.87    -0.221 OA
HETATM    2  C11 MK1 B 902      13.691  22.901   4.481  1.00 21.68     0.174 C 
ENDROOT
BRANCH   2   3
HETATM    3  C10 MK1 B 902      15.068  22.932   5.144  1.00 20.86     0.131 C 
BRANCH   3   4
HETATM    4  N3  MK1 B 902      15.172  22.110   6.334  1.00 28.91    -0.357 N 
HETATM    5  C2  MK1 B 902      16.109  20.933   6.285  1.00 27.27     0.192 C 
HETATM    6  C1  MK1 B 902      16.018  20.410   7.705  1.00 30.30     0.282 C 
HETATM    7  N1  MK1 B 902      16.356  21.271   8.870  1.00 28.25     0.146 N 
HETATM    8  C9  MK1 B 902      15.461  22.340   8.872  1.00 27.47     0.274 C 
HETATM    9  C8  MK1 B 902      15.183  22.988   7.531  1.00 26.24     0.133 C 
BRANCH   5  10
HETATM   10  C3  MK1 B 902      15.646  19.849   5.350  1.00 28.85     0.273 C 
HETATM   11  O1  MK1 B 902      14.542  19.338   5.494  1.00 29.59    -0.269 OA
HETATM   12  N2  MK1 B 902      16.484  19.481   4.401  1.00 22.29    -0.240 NA
BRANCH  12  13
HETATM   13  C4  MK1 B 902      16.318  18.546   3.334  1.00 23.47     0.088 C 
HETATM   14  C5  MK1 B 902      15.429  19.224   2.276  1.00 27.66     0.025 C 
HETATM   15  C6  MK1 B 902      15.756  17.345   3.738  1.00 21.71     0.025 C 
HETATM   16  C7  MK1 B 902      17.564  18.238   2.626  1.00 22.75     0.025 C 
ENDBRANCH  12  13
ENDBRANCH   5  10
BRANCH   7  17
HETATM   17  C31 MK1 B 902      16.525  20.609  10.169  1.00 36.25     0.278 C 
BRANCH  17  18
HETATM   18  C32 MK1 B 902      17.129  19.203  10.277  1.00 42.75     0.030 A 
HETATM   19  C33 MK1 B 902      16.459  18.127  10.875  1.00 47.41     0.097 A 
HETATM   20  N5  MK1 B 902      16.937  16.811  10.993  1.00 51.38    -0.243 NA
HETATM   21  C34 MK1 B 902      18.204  16.693  10.423  1.00 50.60     0.099 A 
HETATM   22  C35 MK1 B 902      18.926  17.722   9.813  1.00 49.34     0.020 A 
HETATM   23  C36 MK1 B 902      18.380  19.001   9.736  1.00 44.71     0.001 A 
ENDBRANCH  17  18
ENDBRANCH   7  17
ENDBRANCH   3   4
ENDBRANCH   2   3
BRANCH   2  24
HETATM   24  C12 MK1 B 902      12.451  22.225   5.094  1.00 21.49     0.045 C 
BRANCH  24  25
HETATM   25  C13 MK1 B 902      11.131  22.996   5.236  1.00 26.89     0.088 C 
BRANCH  25  26
HETATM   26  C14 MK1 B 902      11.353  24.510   5.404  1.00 28.67     0.036 C 
BRANCH  26  27
HETATM   27  C15 MK1 B 902      11.262  24.943   6.821  1.00 26.89    -0.022 A 
HETATM   28  C16 MK1 B 902      10.064  24.921   7.538  1.00 29.22    -0.004 A 
HETATM   29  C17 MK1 B 902      10.017  25.369   8.849  1.00 29.22    -0.000 A 
HETATM   30  C18 MK1 B 902      11.191  25.845   9.440  1.00 30.97    -0.000 A 
HETATM   31  C19 MK1 B 902      12.395  25.860   8.726  1.00 29.25    -0.000 A 
HETATM   32  C20 MK1 B 902      12.426  25.406   7.408  1.00 29.96    -0.004 A 
ENDBRANCH  26  27
ENDBRANCH  25  26
BRANCH  25  33
HETATM   33  C21 MK1 B 902      10.201  22.763   4.051  1.00 29.35     0.252 C 
HETATM   34  O3  MK1 B 902      10.571  22.082   3.082  1.00 32.66    -0.271 OA
HETATM   35  N4  MK1 B 902       9.052  23.432   4.088  1.00 31.19    -0.233 NA
BRANCH  35  36
HETATM   36  C22 MK1 B 902       8.219  23.579   2.906  1.00 29.22     0.159 C 
HETATM   37  C23 MK1 B 902       8.453  24.907   2.206  1.00 28.82     0.183 C 
HETATM   38  O4  MK1 B 902       8.758  25.917   3.156  1.00 28.32    -0.221 OA
HETATM   39  C24 MK1 B 902       7.190  25.168   1.417  1.00 32.05     0.061 C 
HETATM   40  C25 MK1 B 902       5.993  24.574   2.118  1.00 31.29    -0.022 A 
HETATM   41  C26 MK1 B 902       4.629  24.745   2.111  1.00 32.00    -0.004 A 
HETATM   42  C30 MK1 B 902       6.677  23.564   3.084  1.00 31.86    -0.001 A 
HETATM   43  C27 MK1 B 902       3.859  23.975   2.989  1.00 28.00    -0.000 A 
HETATM   44  C28 MK1 B 902       4.464  23.051   3.854  1.00 29.01    -0.000 A 
HETATM   45  C29 MK1 B 902       5.839  22.865   3.893  1.00 27.70    -0.003 A 
ENDBRANCH  35  36
ENDBRANCH  25  33
ENDBRANCH  24  25
ENDBRANCH   2  24
TORSDOF 12
ENDMDL
MODEL 3
REMARK VINA RESULT:   -10.005      2.327      4.449
REMARK INTER + INTRA:         -18.808
REMARK INTER:                 -16.742
REMARK INTRA:                  -2.066
REMARK UNBOUND:                -1.784
REMARK  12 active torsions:
REMARK  status: ('A' for Active; 'I' for Inactive)
REMARK    1  A    between atoms: N1_2  and  C31_40 
REMARK    2  A    between atoms: C2_4  and  C3_7 
REMARK       I    between atoms: N2_5  and  C3_7 
REMARK    3  A    between atoms: N2_5  and  C4_10 
REMARK    4  A    between atoms: N3_8  and  C10_19 
REMARK       I    between atoms: N4_11  and  C21_30 
REMARK    5  A    between atoms: N4_11  and  C22_31 
REMARK    6  A    between atoms: C10_19  and  C11_20 
REMARK    7  A    between atoms: C11_20  and  C12_21 
REMARK    8  A    between atoms: C12_21  and  C13_22 
REMARK    9  A    between atoms: C13_22  and  C14_23 
REMARK   10  A    between atoms: C13_22  and  C21_30 
REMARK   11  A    between atoms: C14_23  and  C15_24 
REMARK   12  A    between atoms: C31_40  and  C32_41 
ROOT
HETATM    1  O2  MK1 B 902      11.022  23.662   1.842  1.00 15.87    -0.221 OA
HETATM    2  C11 MK1 B 902      10.686  23.846   3.184  1.00 21.68     0.174 C 
ENDROOT
BRANCH   2   3
HETATM    3  C10 MK1 B 902       9.636  24.926   2.918  1.00 20.86     0.131 C 
BRANCH   3   4
HETATM    4  N3  MK1 B 902       8.348  24.665   3.528  1.00 28.91    -0.357 N 
HETATM    5  C2  MK1 B 902       7.383  25.816   3.634  1.00 27.27     0.192 C 
HETATM    6  C1  MK1 B 902       6.157  25.135   4.210  1.00 30.30     0.282 C 
HETATM    7  N1  MK1 B 902       5.503  23.997   3.510  1.00 28.25     0.146 N 
HETATM    8  C9  MK1 B 902       6.433  22.961   3.442  1.00 27.47     0.274 C 
HETATM    9  C8  MK1 B 902       7.847  23.349   3.059  1.00 26.24     0.133 C 
BRANCH   5  10
HETATM   10  C3  MK1 B 902       7.835  26.876   4.601  1.00 28.85     0.273 C 
HETATM   11  O1  MK1 B 902       8.537  27.804   4.217  1.00 29.59    -0.269 OA
HETATM   12  N2  MK1 B 902       7.452  26.745   5.855  1.00 22.29    -0.240 NA
BRANCH  12  13
HETATM   13  C4  MK1 B 902       7.654  27.603   6.978  1.00 23.47     0.088 C 
HETATM   14  C5  MK1 B 902       6.717  28.811   6.794  1.00 27.66     0.025 C 
HETATM   15  C6  MK1 B 902       8.967  28.028   7.116  1.00 21.71     0.025 C 
HETATM   16  C7  MK1 B 902       7.242  27.008   8.253  1.00 22.75     0.025 C 
ENDBRANCH  12  13
ENDBRANCH   5  10
BRANCH   7  17
HETATM   17  C31 MK1 B 902       4.170  23.597   3.977  1.00 36.25     0.278 C 
BRANCH  17  18
HETATM   18  C32 MK1 B 902       3.577  22.229   3.622  1.00 42.75     0.030 A 
HETATM   19  C33 MK1 B 902       3.814  21.073   4.379  1.00 47.41     0.097 A 
HETATM   20  N5  MK1 B 902       3.292  19.793   4.129  1.00 51.38    -0.243 NA
HETATM   21  C34 MK1 B 902       2.476  19.804   2.998  1.00 50.60     0.099 A 
HETATM   22  C35 MK1 B 902       2.199  20.918   2.200  1.00 49.34     0.020 A 
HETATM   23  C36 MK1 B 902       2.757  22.154   2.517  1.00 44.71     0.001 A 
ENDBRANCH  17  18
ENDBRANCH   7  17
ENDBRANCH   3   4
ENDBRANCH   2   3
BRANCH   2  24
HETATM   24  C12 MK1 B 902      11.987  24.081   3.973  1.00 21.49     0.045 C 
BRANCH  24  25
HETATM   25  C13 MK1 B 902      12.089  23.678   5.451  1.00 26.89     0.088 C 
BRANCH  25  26
HETATM   26  C14 MK1 B 902      10.762  23.879   6.204  1.00 28.67     0.036 C 
BRANCH  26  27
HETATM   27  C15 MK1 B 902      10.937  24.632   7.471  1.00 26.89    -0.022 A 
HETATM   28  C16 MK1 B 902       9.933  24.723   8.437  1.00 29.22    -0.004 A 
HETATM   29  C17 MK1 B 902      10.127  25.468   9.591  1.00 29.22    -0.000 A 
HETATM   30  C18 MK1 B 902      11.346  26.127   9.768  1.00 30.97    -0.000 A 
HETATM   31  C19 MK1 B 902      12.358  26.032   8.805  1.00 29.25    -0.000 A 
HETATM   32  C20 MK1 B 902      12.148  25.279   7.651  1.00 29.96    -0.004 A 
ENDBRANCH  26  27
ENDBRANCH  25  26
BRANCH  25  33
HETATM   33  C21 MK1 B 902      12.537  22.231   5.620  1.00 29.35     0.252 C 
HETATM   34  O3  MK1 B 902      12.032  21.512   6.495  1.00 32.66    -0.271 OA
HETATM   35  N4  MK1 B 902      13.566  21.861   4.862  1.00 31.19    -0.233 NA
BRANCH  35  36
HETATM   36  C22 MK1 B 902      14.313  20.645   5.135  1.00 29.22     0.159 C 
HETATM   37  C23 MK1 B 902      15.401  20.866   6.173  1.00 28.82     0.183 C 
HETATM   38  O4  MK1 B 902      15.933  22.177   6.057  1.00 28.32    -0.221 OA
HETATM   39  C24 MK1 B 902      16.412  19.769   5.928  1.00 32.05     0.061 C 
HETATM   40  C25 MK1 B 902      16.448  19.397   4.466  1.00 31.29    -0.022 A 
HETATM   41  C26 MK1 B 902      17.319  18.775   3.602  1.00 32.00    -0.004 A 
HETATM   42  C30 MK1 B 902      15.095  19.983   3.970  1.00 31.86    -0.001 A 
HETATM   43  C27 MK1 B 902      16.953  18.667   2.256  1.00 28.00    -0.000 A 
HETATM   44  C28 MK1 B 902      15.729  19.180   1.800  1.00 29.01    -0.000 A 
HETATM   45  C29 MK1 B 902      14.836  19.823   2.646  1.00 27.70    -0.003 A 
ENDBRANCH  35  36
ENDBRANCH  25  33
ENDBRANCH  24  25
ENDBRANCH   2  24
TORSDOF 12
ENDMDL
MODEL 4
REMARK VINA RESULT:    -9.766      2.453     10.882
REMARK INTER + INTRA:         -18.400
REMARK INTER:                 -16.711
REMARK INTRA:                  -1.689
REMARK UNBOUND:                -1.784
REMARK  12 active torsions:
REMARK  status: ('A' for Active; 'I' for Inactive)
REMARK    1  A    between atoms: N1_2  and  C31_40 
REMARK    2  A    between atoms: C2_4  and  C3_7 
REMARK       I    between atoms: N2_5  and  C3_7 
REMARK    3  A    between atoms: N2_5  and  C4_10 
REMARK    4  A    between atoms: N3_8  and  C10_19 
REMARK       I    between atoms: N4_11  and  C21_30 
REMARK    5  A    between atoms: N4_11  and  C22_31 
REMARK    6  A    between atoms: C10_19  and  C11_20 
REMARK    7  A    between atoms: C11_20  and  C12_21 
REMARK    8  A    between atoms: C12_21  and  C13_22 
REMARK    9  A    between atoms: C13_22  and  C14_23 
REMARK   10  A    between atoms: C13_22  and  C21_30 
REMARK   11  A    between atoms: C14_23  and  C15_24 
REMARK   12  A    between atoms: C31_40  and  C32_41 
ROOT
HETATM    1  O2  MK1 B 902      11.747  23.889   2.606  1.00 15.87    -0.221 OA
HETATM    2  C11 MK1 B 902      11.371  23.930   3.949  1.00 21.68     0.174 C 
ENDROOT
BRANCH   2   3
HETATM    3  C10 MK1 B 902      11.766  22.483   4.248  1.00 20.86     0.131 C 
BRANCH   3   4
HETATM    4  N3  MK1 B 902      12.853  22.348   5.197  1.00 28.91    -0.357 N 
HETATM    5  C2  MK1 B 902      14.257  22.474   4.668  1.00 27.27     0.192 C 
HETATM    6  C1  MK1 B 902      15.074  22.383   5.942  1.00 30.30     0.282 C 
HETATM    7  N1  MK1 B 902      14.872  23.343   7.061  1.00 28.25     0.146 N 
HETATM    8  C9  MK1 B 902      13.564  23.183   7.515  1.00 27.47     0.274 C 
HETATM    9  C8  MK1 B 902      12.492  23.054   6.452  1.00 26.24     0.133 C 
BRANCH   5  10
HETATM   10  C3  MK1 B 902      14.653  21.335   3.768  1.00 28.85     0.273 C 
HETATM   11  O1  MK1 B 902      14.629  21.472   2.551  1.00 29.59    -0.269 OA
HETATM   12  N2  MK1 B 902      15.004  20.206   4.352  1.00 22.29    -0.240 NA
BRANCH  12  13
HETATM   13  C4  MK1 B 902      15.489  18.987   3.788  1.00 23.47     0.088 C 
HETATM   14  C5  MK1 B 902      17.026  19.032   3.874  1.00 27.66     0.025 C 
HETATM   15  C6  MK1 B 902      15.085  18.789   2.477  1.00 21.71     0.025 C 
HETATM   16  C7  MK1 B 902      15.112  17.796   4.556  1.00 22.75     0.025 C 
ENDBRANCH  12  13
ENDBRANCH   5  10
BRANCH   7  17
HETATM   17  C31 MK1 B 902      15.891  23.367   8.117  1.00 36.25     0.278 C 
BRANCH  17  18
HETATM   18  C32 MK1 B 902      16.463  22.072   8.705  1.00 42.75     0.030 A 
HETATM   19  C33 MK1 B 902      15.723  21.215   9.533  1.00 47.41     0.097 A 
HETATM   20  N5  MK1 B 902      16.170  20.006  10.091  1.00 51.38    -0.243 NA
HETATM   21  C34 MK1 B 902      17.486  19.744   9.712  1.00 50.60     0.099 A 
HETATM   22  C35 MK1 B 902      18.278  20.553   8.893  1.00 49.34     0.020 A 
HETATM   23  C36 MK1 B 902      17.759  21.738   8.378  1.00 44.71     0.001 A 
ENDBRANCH  17  18
ENDBRANCH   7  17
ENDBRANCH   3   4
ENDBRANCH   2   3
BRANCH   2  24
HETATM   24  C12 MK1 B 902       9.930  24.466   4.025  1.00 21.49     0.045 C 
BRANCH  24  25
HETATM   25  C13 MK1 B 902       9.475  25.321   5.215  1.00 26.89     0.088 C 
BRANCH  25  26
HETATM   26  C14 MK1 B 902      10.648  26.061   5.884  1.00 28.67     0.036 C 
BRANCH  26  27
HETATM   27  C15 MK1 B 902      10.628  25.935   7.363  1.00 26.89    -0.022 A 
HETATM   28  C16 MK1 B 902      11.700  26.330   8.166  1.00 29.22    -0.004 A 
HETATM   29  C17 MK1 B 902      11.653  26.160   9.542  1.00 29.22    -0.000 A 
HETATM   30  C18 MK1 B 902      10.514  25.584  10.110  1.00 30.97    -0.000 A 
HETATM   31  C19 MK1 B 902       9.434  25.194   9.308  1.00 29.25    -0.000 A 
HETATM   32  C20 MK1 B 902       9.496  25.372   7.927  1.00 29.96    -0.004 A 
ENDBRANCH  26  27
ENDBRANCH  25  26
BRANCH  25  33
HETATM   33  C21 MK1 B 902       8.413  26.340   4.816  1.00 29.35     0.252 C 
HETATM   34  O3  MK1 B 902       8.694  27.282   4.060  1.00 32.66    -0.271 OA
HETATM   35  N4  MK1 B 902       7.239  26.208   5.428  1.00 31.19    -0.233 NA
BRANCH  35  36
HETATM   36  C22 MK1 B 902       6.249  27.271   5.411  1.00 29.22     0.159 C 
HETATM   37  C23 MK1 B 902       6.466  28.269   6.537  1.00 28.82     0.183 C 
HETATM   38  O4  MK1 B 902       6.981  27.611   7.685  1.00 28.32    -0.221 OA
HETATM   39  C24 MK1 B 902       5.120  28.920   6.755  1.00 32.05     0.061 C 
HETATM   40  C25 MK1 B 902       4.005  27.954   6.440  1.00 31.29    -0.022 A 
HETATM   41  C26 MK1 B 902       2.670  27.817   6.741  1.00 32.00    -0.004 A 
HETATM   42  C30 MK1 B 902       4.755  26.892   5.587  1.00 31.86    -0.001 A 
HETATM   43  C27 MK1 B 902       1.990  26.698   6.249  1.00 28.00    -0.000 A 
HETATM   44  C28 MK1 B 902       2.654  25.741   5.467  1.00 29.01    -0.000 A 
HETATM   45  C29 MK1 B 902       4.003  25.845   5.156  1.00 27.70    -0.003 A 
ENDBRANCH  35  36
ENDBRANCH  25  33
ENDBRANCH  24  25
ENDBRANCH   2  24
TORSDOF 12
ENDMDL
MODEL 5
REMARK VINA RESULT:    -9.522      2.225      4.408
REMARK INTER + INTRA:         -17.986
REMARK INTER:                 -16.302
REMARK INTRA:                  -1.684
REMARK UNBOUND:                -1.784
REMARK  12 active torsions:
REMARK  status: ('A' for Active; 'I' for Inactive)
REMARK    1  A    between atoms: N1_2  and  C31_40 
REMARK    2  A    between atoms: C2_4  and  C3_7 
REMARK       I    between atoms: N2_5  and  C3_7 
REMARK    3  A    between atoms: N2_5  and  C4_10 
REMARK    4  A    between atoms: N3_8  and  C10_19 
REMARK       I    between atoms: N4_11  and  C21_30 
REMARK    5  A    between atoms: N4_11  and  C22_31 
REMARK    6  A    between atoms: C10_19  and  C11_20 
REMARK    7  A    between atoms: C11_20  and  C12_21 
REMARK    8  A    between atoms: C12_21  and  C13_22 
REMARK    9  A    between atoms: C13_22  and  C14_23 
REMARK   10  A    between atoms: C13_22  and  C21_30 
REMARK   11  A    between atoms: C14_23  and  C15_24 
REMARK   12  A    between atoms: C31_40  and  C32_41 
ROOT
HETATM    1  O2  MK1 B 902      10.227  22.863   2.197  1.00 15.87    -0.221 OA
HETATM    2  C11 MK1 B 902      10.164  23.480   3.447  1.00 21.68     0.174 C 
ENDROOT
BRANCH   2   3
HETATM    3  C10 MK1 B 902       9.271  24.634   2.987  1.00 20.86     0.131 C 
BRANCH   3   4
HETATM    4  N3  MK1 B 902       7.928  24.598   3.530  1.00 28.91    -0.357 N 
HETATM    5  C2  MK1 B 902       7.172  25.898   3.599  1.00 27.27     0.192 C 
HETATM    6  C1  MK1 B 902       5.819  25.439   4.108  1.00 30.30     0.282 C 
HETATM    7  N1  MK1 B 902       5.015  24.430   3.366  1.00 28.25     0.146 N 
HETATM    8  C9  MK1 B 902       5.756  23.249   3.335  1.00 27.47     0.274 C 
HETATM    9  C8  MK1 B 902       7.232  23.388   3.026  1.00 26.24     0.133 C 
BRANCH   5  10
HETATM   10  C3  MK1 B 902       7.750  26.865   4.596  1.00 28.85     0.273 C 
HETATM   11  O1  MK1 B 902       8.578  27.695   4.242  1.00 29.59    -0.269 OA
HETATM   12  N2  MK1 B 902       7.335  26.759   5.842  1.00 22.29    -0.240 NA
BRANCH  12  13
HETATM   13  C4  MK1 B 902       7.636  27.557   6.987  1.00 23.47     0.088 C 
HETATM   14  C5  MK1 B 902       6.751  28.814   6.905  1.00 27.66     0.025 C 
HETATM   15  C6  MK1 B 902       8.973  27.913   7.073  1.00 21.71     0.025 C 
HETATM   16  C7  MK1 B 902       7.261  26.926   8.257  1.00 22.75     0.025 C 
ENDBRANCH  12  13
ENDBRANCH   5  10
BRANCH   7  17
HETATM   17  C31 MK1 B 902       3.612  24.266   3.764  1.00 36.25     0.278 C 
BRANCH  17  18
HETATM   18  C32 MK1 B 902       2.903  25.305   4.640  1.00 42.75     0.030 A 
HETATM   19  C33 MK1 B 902       1.817  26.071   4.192  1.00 47.41     0.097 A 
HETATM   20  N5  MK1 B 902       1.106  27.024   4.940  1.00 51.38    -0.243 NA
HETATM   21  C34 MK1 B 902       1.622  27.124   6.231  1.00 50.60     0.099 A 
HETATM   22  C35 MK1 B 902       2.699  26.392   6.741  1.00 49.34     0.020 A 
HETATM   23  C36 MK1 B 902       3.352  25.464   5.933  1.00 44.71     0.001 A 
ENDBRANCH  17  18
ENDBRANCH   7  17
ENDBRANCH   3   4
ENDBRANCH   2   3
BRANCH   2  24
HETATM   24  C12 MK1 B 902      11.602  23.654   3.966  1.00 21.49     0.045 C 
BRANCH  24  25
HETATM   25  C13 MK1 B 902      11.930  23.440   5.450  1.00 26.89     0.088 C 
BRANCH  25  26
HETATM   26  C14 MK1 B 902      10.706  23.664   6.356  1.00 28.67     0.036 C 
BRANCH  26  27
HETATM   27  C15 MK1 B 902      11.003  24.565   7.498  1.00 26.89    -0.022 A 
HETATM   28  C16 MK1 B 902      12.228  25.220   7.641  1.00 29.22    -0.004 A 
HETATM   29  C17 MK1 B 902      12.476  26.024   8.743  1.00 29.22    -0.000 A 
HETATM   30  C18 MK1 B 902      11.477  26.166   9.710  1.00 30.97    -0.000 A 
HETATM   31  C19 MK1 B 902      10.244  25.517   9.566  1.00 29.25    -0.000 A 
HETATM   32  C20 MK1 B 902      10.011  24.713   8.452  1.00 29.96    -0.004 A 
ENDBRANCH  26  27
ENDBRANCH  25  26
BRANCH  25  33
HETATM   33  C21 MK1 B 902      12.492  22.048   5.717  1.00 29.35     0.252 C 
HETATM   34  O3  MK1 B 902      12.086  21.377   6.678  1.00 32.66    -0.271 OA
HETATM   35  N4  MK1 B 902      13.505  21.684   4.937  1.00 31.19    -0.233 NA
BRANCH  35  36
HETATM   36  C22 MK1 B 902      14.354  20.552   5.270  1.00 29.22     0.159 C 
HETATM   37  C23 MK1 B 902      15.434  20.925   6.270  1.00 28.82     0.183 C 
HETATM   38  O4  MK1 B 902      15.856  22.265   6.062  1.00 28.32    -0.221 OA
HETATM   39  C24 MK1 B 902      16.528  19.900   6.074  1.00 32.05     0.061 C 
HETATM   40  C25 MK1 B 902      16.573  19.439   4.638  1.00 31.29    -0.022 A 
HETATM   41  C26 MK1 B 902      17.479  18.836   3.797  1.00 32.00    -0.004 A 
HETATM   42  C30 MK1 B 902      15.170  19.881   4.133  1.00 31.86    -0.001 A 
HETATM   43  C27 MK1 B 902      17.103  18.613   2.468  1.00 28.00    -0.000 A 
HETATM   44  C28 MK1 B 902      15.835  18.995   2.005  1.00 29.01    -0.000 A 
HETATM   45  C29 MK1 B 902      14.905  19.617   2.827  1.00 27.70    -0.003 A 
ENDBRANCH  35  36
ENDBRANCH  25  33
ENDBRANCH  24  25
ENDBRANCH   2  24
TORSDOF 12
ENDMDL
MODEL 6
REMARK VINA RESULT:    -9.398      2.824      5.711
REMARK INTER + INTRA:         -17.775
REMARK INTER:                 -15.584
REMARK INTRA:                  -2.190
REMARK UNBOUND:                -1.784
REMARK  12 active torsions:
REMARK  status: ('A' for Active; 'I' for Inactive)
REMARK    1  A    between atoms: N1_2  and  C31_40 
REMARK    2  A    between atoms: C2_4  and  C3_7 
REMARK       I    between atoms: N2_5  and  C3_7 
REMARK    3  A    between atoms: N2_5  and  C4_10 
REMARK    4  A    between atoms: N3_8  and  C10_19 
REMARK       I    between atoms: N4_11  and  C21_30 
REMARK    5  A    between atoms: N4_11  and  C22_31 
REMARK    6  A    between atoms: C10_19  and  C11_20 
REMARK    7  A    between atoms: C11_20  and  C12_21 
REMARK    8  A    between atoms: C12_21  and  C13_22 
REMARK    9  A    between atoms: C13_22  and  C14_23 
REMARK   10  A    between atoms: C13_22  and  C21_30 
REMARK   11  A    between atoms: C14_23  and  C15_24 
REMARK   12  A    between atoms: C31_40  and  C32_41 
ROOT
HETATM    1  O2  MK1 B 902       9.577  24.057   1.857  1.00 15.87    -0.221 OA
HETATM    2  C11 MK1 B 902       9.698  24.738   3.069  1.00 21.68     0.174 C 
ENDROOT
BRANCH   2   3
HETATM    3  C10 MK1 B 902       8.919  25.972   2.613  1.00 20.86     0.131 C 
BRANCH   3   4
HETATM    4  N3  MK1 B 902       7.990  26.486   3.600  1.00 28.91    -0.357 N 
HETATM    5  C2  MK1 B 902       6.949  25.539   4.135  1.00 27.27     0.192 C 
HETATM    6  C1  MK1 B 902       6.266  26.394   5.183  1.00 30.30     0.282 C 
HETATM    7  N1  MK1 B 902       7.028  26.990   6.313  1.00 28.25     0.146 N 
HETATM    8  C9  MK1 B 902       7.972  27.859   5.767  1.00 27.47     0.274 C 
HETATM    9  C8  MK1 B 902       8.725  27.357   4.551  1.00 26.24     0.133 C 
BRANCH   5  10
HETATM   10  C3  MK1 B 902       5.927  25.144   3.105  1.00 28.85     0.273 C 
HETATM   11  O1  MK1 B 902       6.175  24.259   2.294  1.00 29.59    -0.269 OA
HETATM   12  N2  MK1 B 902       4.782  25.798   3.116  1.00 22.29    -0.240 NA
BRANCH  12  13
HETATM   13  C4  MK1 B 902       3.606  25.616   2.328  1.00 23.47     0.088 C 
HETATM   14  C5  MK1 B 902       2.638  26.757   2.694  1.00 27.66     0.025 C 
HETATM   15  C6  MK1 B 902       2.997  24.386   2.525  1.00 21.71     0.025 C 
HETATM   16  C7  MK1 B 902       3.834  25.774   0.889  1.00 22.75     0.025 C 
ENDBRANCH  12  13
ENDBRANCH   5  10
BRANCH   7  17
HETATM   17  C31 MK1 B 902       6.253  27.547   7.428  1.00 36.25     0.278 C 
BRANCH  17  18
HETATM   18  C32 MK1 B 902       4.875  28.182   7.203  1.00 42.75     0.030 A 
HETATM   19  C33 MK1 B 902       4.702  29.451   6.632  1.00 47.41     0.097 A 
HETATM   20  N5  MK1 B 902       3.476  30.089   6.378  1.00 51.38    -0.243 NA
HETATM   21  C34 MK1 B 902       2.409  29.283   6.772  1.00 50.60     0.099 A 
HETATM   22  C35 MK1 B 902       2.511  28.013   7.346  1.00 49.34     0.020 A 
HETATM   23  C36 MK1 B 902       3.766  27.449   7.566  1.00 44.71     0.001 A 
ENDBRANCH  17  18
ENDBRANCH   7  17
ENDBRANCH   3   4
ENDBRANCH   2   3
BRANCH   2  24
HETATM   24  C12 MK1 B 902      11.187  24.752   3.461  1.00 21.49     0.045 C 
BRANCH  24  25
HETATM   25  C13 MK1 B 902      11.637  24.254   4.842  1.00 26.89     0.088 C 
BRANCH  25  26
HETATM   26  C14 MK1 B 902      10.523  24.374   5.897  1.00 28.67     0.036 C 
BRANCH  26  27
HETATM   27  C15 MK1 B 902      11.007  24.967   7.169  1.00 26.89    -0.022 A 
HETATM   28  C16 MK1 B 902      12.357  25.236   7.408  1.00 29.22    -0.004 A 
HETATM   29  C17 MK1 B 902      12.769  25.757   8.624  1.00 29.22    -0.000 A 
HETATM   30  C18 MK1 B 902      11.809  26.008   9.608  1.00 30.97    -0.000 A 
HETATM   31  C19 MK1 B 902      10.454  25.748   9.370  1.00 29.25    -0.000 A 
HETATM   32  C20 MK1 B 902      10.055  25.224   8.141  1.00 29.96    -0.004 A 
ENDBRANCH  26  27
ENDBRANCH  25  26
BRANCH  25  33
HETATM   33  C21 MK1 B 902      12.121  22.809   4.799  1.00 29.35     0.252 C 
HETATM   34  O3  MK1 B 902      11.317  21.877   4.645  1.00 32.66    -0.271 OA
HETATM   35  N4  MK1 B 902      13.414  22.634   5.059  1.00 31.19    -0.233 NA
BRANCH  35  36
HETATM   36  C22 MK1 B 902      13.955  21.324   5.380  1.00 29.22     0.159 C 
HETATM   37  C23 MK1 B 902      15.022  21.398   6.459  1.00 28.82     0.183 C 
HETATM   38  O4  MK1 B 902      15.754  22.609   6.346  1.00 28.32    -0.221 OA
HETATM   39  C24 MK1 B 902      15.862  20.155   6.272  1.00 32.05     0.061 C 
HETATM   40  C25 MK1 B 902      15.897  19.751   4.819  1.00 31.29    -0.022 A 
HETATM   41  C26 MK1 B 902      16.695  18.986   4.001  1.00 32.00    -0.004 A 
HETATM   42  C30 MK1 B 902      14.671  20.526   4.259  1.00 31.86    -0.001 A 
HETATM   43  C27 MK1 B 902      16.369  18.907   2.642  1.00 28.00    -0.000 A 
HETATM   44  C28 MK1 B 902      15.257  19.591   2.129  1.00 29.01    -0.000 A 
HETATM   45  C29 MK1 B 902      14.441  20.380   2.927  1.00 27.70    -0.003 A 
ENDBRANCH  35  36
ENDBRANCH  25  33
ENDBRANCH  24  25
ENDBRANCH   2  24
TORSDOF 12
ENDMDL
MODEL 7
REMARK VINA RESULT:    -9.358      2.594     11.429
REMARK INTER + INTRA:         -17.707
REMARK INTER:                 -15.948
REMARK INTRA:                  -1.760
REMARK UNBOUND:                -1.784
REMARK  12 active torsions:
REMARK  status: ('A' for Active; 'I' for Inactive)
REMARK    1  A    between atoms: N1_2  and  C31_40 
REMARK    2  A    between atoms: C2_4  and  C3_7 
REMARK       I    between atoms: N2_5  and  C3_7 
REMARK    3  A    between atoms: N2_5  and  C4_10 
REMARK    4  A    between atoms: N3_8  and  C10_19 
REMARK       I    between atoms: N4_11  and  C21_30 
REMARK    5  A    between atoms: N4_11  and  C22_31 
REMARK    6  A    between atoms: C10_19  and  C11_20 
REMARK    7  A    between atoms: C11_20  and  C12_21 
REMARK    8  A    between atoms: C12_21  and  C13_22 
REMARK    9  A    between atoms: C13_22  and  C14_23 
REMARK   10  A    between atoms: C13_22  and  C21_30 
REMARK   11  A    between atoms: C14_23  and  C15_24 
REMARK   12  A    between atoms: C31_40  and  C32_41 
ROOT
HETATM    1  O2  MK1 B 902      15.578  23.916   7.914  1.00 15.87    -0.221 OA
HETATM    2  C11 MK1 B 902      14.909  22.708   8.118  1.00 21.68     0.174 C 
ENDROOT
BRANCH   2   3
HETATM    3  C10 MK1 B 902      15.842  21.882   7.232  1.00 20.86     0.131 C 
BRANCH   3   4
HETATM    4  N3  MK1 B 902      16.340  20.673   7.858  1.00 28.91    -0.357 N 
HETATM    5  C2  MK1 B 902      17.683  20.162   7.412  1.00 27.27     0.192 C 
HETATM    6  C1  MK1 B 902      17.889  18.985   8.345  1.00 30.30     0.282 C 
HETATM    7  N1  MK1 B 902      17.886  19.159   9.822  1.00 28.25     0.146 N 
HETATM    8  C9  MK1 B 902      16.623  19.628  10.183  1.00 27.47     0.274 C 
HETATM    9  C8  MK1 B 902      16.035  20.718   9.310  1.00 26.24     0.133 C 
BRANCH   5  10
HETATM   10  C3  MK1 B 902      17.680  19.650   5.997  1.00 28.85     0.273 C 
HETATM   11  O1  MK1 B 902      18.647  19.837   5.269  1.00 29.59    -0.269 OA
HETATM   12  N2  MK1 B 902      16.596  19.018   5.592  1.00 22.29    -0.240 NA
BRANCH  12  13
HETATM   13  C4  MK1 B 902      16.314  18.367   4.353  1.00 23.47     0.088 C 
HETATM   14  C5  MK1 B 902      15.071  17.486   4.581  1.00 27.66     0.025 C 
HETATM   15  C6  MK1 B 902      17.369  17.600   3.883  1.00 21.71     0.025 C 
HETATM   16  C7  MK1 B 902      15.921  19.288   3.283  1.00 22.75     0.025 C 
ENDBRANCH  12  13
ENDBRANCH   5  10
BRANCH   7  17
HETATM   17  C31 MK1 B 902      18.380  18.039  10.632  1.00 36.25     0.278 C 
BRANCH  17  18
HETATM   18  C32 MK1 B 902      19.039  18.270  11.997  1.00 42.75     0.030 A 
HETATM   19  C33 MK1 B 902      19.512  19.522  12.416  1.00 47.41     0.097 A 
HETATM   20  N5  MK1 B 902      20.107  19.814  13.654  1.00 51.38    -0.243 NA
HETATM   21  C34 MK1 B 902      20.175  18.673  14.452  1.00 50.60     0.099 A 
HETATM   22  C35 MK1 B 902      19.724  17.399  14.097  1.00 49.34     0.020 A 
HETATM   23  C36 MK1 B 902      19.144  17.191  12.848  1.00 44.71     0.001 A 
ENDBRANCH  17  18
ENDBRANCH   7  17
ENDBRANCH   3   4
ENDBRANCH   2   3
BRANCH   2  24
HETATM   24  C12 MK1 B 902      13.415  22.935   7.826  1.00 21.49     0.045 C 
BRANCH  24  25
HETATM   25  C13 MK1 B 902      12.947  23.349   6.423  1.00 26.89     0.088 C 
BRANCH  25  26
HETATM   26  C14 MK1 B 902      11.951  22.343   5.820  1.00 28.67     0.036 C 
BRANCH  26  27
HETATM   27  C15 MK1 B 902      11.336  22.837   4.562  1.00 26.89    -0.022 A 
HETATM   28  C16 MK1 B 902      12.084  23.104   3.414  1.00 29.22    -0.004 A 
HETATM   29  C17 MK1 B 902      11.472  23.600   2.272  1.00 29.22    -0.000 A 
HETATM   30  C18 MK1 B 902      10.094  23.829   2.293  1.00 30.97    -0.000 A 
HETATM   31  C19 MK1 B 902       9.340  23.555   3.440  1.00 29.25    -0.000 A 
HETATM   32  C20 MK1 B 902       9.969  23.056   4.580  1.00 29.96    -0.004 A 
ENDBRANCH  26  27
ENDBRANCH  25  26
BRANCH  25  33
HETATM   33  C21 MK1 B 902      12.312  24.735   6.417  1.00 29.35     0.252 C 
HETATM   34  O3  MK1 B 902      12.798  25.649   5.734  1.00 32.66    -0.271 OA
HETATM   35  N4  MK1 B 902      11.309  24.905   7.274  1.00 31.19    -0.233 NA
BRANCH  35  36
HETATM   36  C22 MK1 B 902      10.824  26.230   7.624  1.00 29.22     0.159 C 
HETATM   37  C23 MK1 B 902      10.412  26.317   9.084  1.00 28.82     0.183 C 
HETATM   38  O4  MK1 B 902       9.873  25.078   9.518  1.00 28.32    -0.221 OA
HETATM   39  C24 MK1 B 902       9.435  27.469   9.153  1.00 32.05     0.061 C 
HETATM   40  C25 MK1 B 902       8.668  27.592   7.860  1.00 31.29    -0.022 A 
HETATM   41  C26 MK1 B 902       7.489  28.158   7.434  1.00 32.00    -0.004 A 
HETATM   42  C30 MK1 B 902       9.570  26.775   6.892  1.00 31.86    -0.001 A 
HETATM   43  C27 MK1 B 902       7.121  27.994   6.094  1.00 28.00    -0.000 A 
HETATM   44  C28 MK1 B 902       7.935  27.271   5.208  1.00 29.01    -0.000 A 
HETATM   45  C29 MK1 B 902       9.123  26.678   5.612  1.00 27.70    -0.003 A 
ENDBRANCH  35  36
ENDBRANCH  25  33
ENDBRANCH  24  25
ENDBRANCH   2  24
TORSDOF 12
ENDMDL
MODEL 8
REMARK VINA RESULT:    -9.177      1.922     10.201
REMARK INTER + INTRA:         -17.398
REMARK INTER:                 -15.688
REMARK INTRA:                  -1.710
REMARK UNBOUND:                -1.784
REMARK  12 active torsions:
REMARK  status: ('A' for Active; 'I' for Inactive)
REMARK    1  A    between atoms: N1_2  and  C31_40 
REMARK    2  A    between atoms: C2_4  and  C3_7 
REMARK       I    between atoms: N2_5  and  C3_7 
REMARK    3  A    between atoms: N2_5  and  C4_10 
REMARK    4  A    between atoms: N3_8  and  C10_19 
REMARK       I    between atoms: N4_11  and  C21_30 
REMARK    5  A    between atoms: N4_11  and  C22_31 
REMARK    6  A    between atoms: C10_19  and  C11_20 
REMARK    7  A    between atoms: C11_20  and  C12_21 
REMARK    8  A    between atoms: C12_21  and  C13_22 
REMARK    9  A    between atoms: C13_22  and  C14_23 
REMARK   10  A    between atoms: C13_22  and  C21_30 
REMARK   11  A    between atoms: C14_23  and  C15_24 
REMARK   12  A    between atoms: C31_40  and  C32_41 
ROOT
HETATM    1  O2  MK1 B 902      12.853  24.656   7.045  1.00 15.87    -0.221 OA
HETATM    2  C11 MK1 B 902      12.794  23.915   5.863  1.00 21.68     0.174 C 
ENDROOT
BRANCH   2   3
HETATM    3  C10 MK1 B 902      14.308  23.878   5.647  1.00 20.86     0.131 C 
BRANCH   3   4
HETATM    4  N3  MK1 B 902      14.815  22.590   5.219  1.00 28.91    -0.357 N 
HETATM    5  C2  MK1 B 902      14.546  21.406   6.109  1.00 27.27     0.192 C 
HETATM    6  C1  MK1 B 902      15.124  20.269   5.289  1.00 30.30     0.282 C 
HETATM    7  N1  MK1 B 902      14.638  19.982   3.913  1.00 28.25     0.146 N 
HETATM    8  C9  MK1 B 902      14.914  21.103   3.132  1.00 27.47     0.274 C 
HETATM    9  C8  MK1 B 902      14.610  22.450   3.755  1.00 26.24     0.133 C 
BRANCH   5  10
HETATM   10  C3  MK1 B 902      15.285  21.471   7.417  1.00 28.85     0.273 C 
HETATM   11  O1  MK1 B 902      14.788  22.043   8.380  1.00 29.59    -0.269 OA
HETATM   12  N2  MK1 B 902      16.474  20.904   7.462  1.00 22.29    -0.240 NA
BRANCH  12  13
HETATM   13  C4  MK1 B 902      17.379  20.739   8.554  1.00 23.47     0.088 C 
HETATM   14  C5  MK1 B 902      16.560  20.191   9.737  1.00 27.66     0.025 C 
HETATM   15  C6  MK1 B 902      18.023  21.912   8.916  1.00 21.71     0.025 C 
HETATM   16  C7  MK1 B 902      18.406  19.721   8.315  1.00 22.75     0.025 C 
ENDBRANCH  12  13
ENDBRANCH   5  10
BRANCH   7  17
HETATM   17  C31 MK1 B 902      15.034  18.702   3.314  1.00 36.25     0.278 C 
BRANCH  17  18
HETATM   18  C32 MK1 B 902      16.366  18.031   3.671  1.00 42.75     0.030 A 
HETATM   19  C33 MK1 B 902      17.546  18.238   2.942  1.00 47.41     0.097 A 
HETATM   20  N5  MK1 B 902      18.804  17.676   3.219  1.00 51.38    -0.243 NA
HETATM   21  C34 MK1 B 902      18.743  16.859   4.347  1.00 50.60     0.099 A 
HETATM   22  C35 MK1 B 902      17.602  16.610   5.116  1.00 49.34     0.020 A 
HETATM   23  C36 MK1 B 902      16.391  17.207   4.775  1.00 44.71     0.001 A 
ENDBRANCH  17  18
ENDBRANCH   7  17
ENDBRANCH   3   4
ENDBRANCH   2   3
BRANCH   2  24
HETATM   24  C12 MK1 B 902      11.803  24.612   4.913  1.00 21.49     0.045 C 
BRANCH  24  25
HETATM   25  C13 MK1 B 902      10.294  24.579   5.196  1.00 26.89     0.088 C 
BRANCH  25  26
HETATM   26  C14 MK1 B 902       9.709  25.988   5.401  1.00 28.67     0.036 C 
BRANCH  26  27
HETATM   27  C15 MK1 B 902       9.529  26.325   6.836  1.00 26.89    -0.022 A 
HETATM   28  C16 MK1 B 902       9.608  25.367   7.849  1.00 29.22    -0.004 A 
HETATM   29  C17 MK1 B 902       9.397  25.720   9.173  1.00 29.22    -0.000 A 
HETATM   30  C18 MK1 B 902       9.102  27.052   9.475  1.00 30.97    -0.000 A 
HETATM   31  C19 MK1 B 902       9.030  28.017   8.463  1.00 29.25    -0.000 A 
HETATM   32  C20 MK1 B 902       9.245  27.646   7.136  1.00 29.96    -0.004 A 
ENDBRANCH  26  27
ENDBRANCH  25  26
BRANCH  25  33
HETATM   33  C21 MK1 B 902       9.518  23.879   4.087  1.00 29.35     0.252 C 
HETATM   34  O3  MK1 B 902      10.114  23.258   3.194  1.00 32.66    -0.271 OA
HETATM   35  N4  MK1 B 902       8.205  24.092   4.089  1.00 31.19    -0.233 NA
BRANCH  35  36
HETATM   36  C22 MK1 B 902       7.381  23.778   2.934  1.00 29.22     0.159 C 
HETATM   37  C23 MK1 B 902       7.325  24.930   1.945  1.00 28.82     0.183 C 
HETATM   38  O4  MK1 B 902       7.379  26.172   2.633  1.00 28.32    -0.221 OA
HETATM   39  C24 MK1 B 902       6.050  24.719   1.161  1.00 32.05     0.061 C 
HETATM   40  C25 MK1 B 902       5.004  24.048   2.018  1.00 31.29    -0.022 A 
HETATM   41  C26 MK1 B 902       3.637  23.905   2.018  1.00 32.00    -0.004 A 
HETATM   42  C30 MK1 B 902       5.880  23.461   3.162  1.00 31.86    -0.001 A 
HETATM   43  C27 MK1 B 902       3.044  23.202   3.072  1.00 28.00    -0.000 A 
HETATM   44  C28 MK1 B 902       3.825  22.657   4.102  1.00 29.01    -0.000 A 
HETATM   45  C29 MK1 B 902       5.205  22.795   4.136  1.00 27.70    -0.003 A 
ENDBRANCH  35  36
ENDBRANCH  25  33
ENDBRANCH  24  25
ENDBRANCH   2  24
TORSDOF 12
ENDMDL
MODEL 9
REMARK VINA RESULT:    -8.831      2.230      4.373
REMARK INTER + INTRA:         -16.809
REMARK INTER:                 -15.354
REMARK INTRA:                  -1.455
REMARK UNBOUND:                -1.784
REMARK  12 active torsions:
REMARK  status: ('A' for Active; 'I' for Inactive)
REMARK    1  A    between atoms: N1_2  and  C31_40 
REMARK    2  A    between atoms: C2_4  and  C3_7 
REMARK       I    between atoms: N2_5  and  C3_7 
REMARK    3  A    between atoms: N2_5  and  C4_10 
REMARK    4  A    between atoms: N3_8  and  C10_19 
REMARK       I    between atoms: N4_11  and  C21_30 
REMARK    5  A    between atoms: N4_11  and  C22_31 
REMARK    6  A    between atoms: C10_19  and  C11_20 
REMARK    7  A    between atoms: C11_20  and  C12_21 
REMARK    8  A    between atoms: C12_21  and  C13_22 
REMARK    9  A    between atoms: C13_22  and  C14_23 
REMARK   10  A    between atoms: C13_22  and  C21_30 
REMARK   11  A    between atoms: C14_23  and  C15_24 
REMARK   12  A    between atoms: C31_40  and  C32_41 
ROOT
HETATM    1  O2  MK1 B 902      12.270  24.916   3.111  1.00 15.87    -0.221 OA
HETATM    2  C11 MK1 B 902      11.184  24.051   2.963  1.00 21.68     0.174 C 
ENDROOT
BRANCH   2   3
HETATM    3  C10 MK1 B 902      10.121  25.146   3.049  1.00 20.86     0.131 C 
BRANCH   3   4
HETATM    4  N3  MK1 B 902       8.850  24.700   3.584  1.00 28.91    -0.357 N 
HETATM    5  C2  MK1 B 902       7.729  25.702   3.641  1.00 27.27     0.192 C 
HETATM    6  C1  MK1 B 902       6.581  24.850   4.144  1.00 30.30     0.282 C 
HETATM    7  N1  MK1 B 902       6.133  23.639   3.405  1.00 28.25     0.146 N 
HETATM    8  C9  MK1 B 902       7.203  22.745   3.386  1.00 27.47     0.274 C 
HETATM    9  C8  MK1 B 902       8.566  23.332   3.084  1.00 26.24     0.133 C 
BRANCH   5  10
HETATM   10  C3  MK1 B 902       7.972  26.805   4.634  1.00 28.85     0.273 C 
HETATM   11  O1  MK1 B 902       8.714  27.738   4.352  1.00 29.59    -0.269 OA
HETATM   12  N2  MK1 B 902       7.367  26.704   5.801  1.00 22.29    -0.240 NA
BRANCH  12  13
HETATM   13  C4  MK1 B 902       7.341  27.603   6.909  1.00 23.47     0.088 C 
HETATM   14  C5  MK1 B 902       7.054  26.760   8.166  1.00 27.66     0.025 C 
HETATM   15  C6  MK1 B 902       6.397  28.610   6.778  1.00 21.71     0.025 C 
HETATM   16  C7  MK1 B 902       8.635  28.238   7.181  1.00 22.75     0.025 C 
ENDBRANCH  12  13
ENDBRANCH   5  10
BRANCH   7  17
HETATM   17  C31 MK1 B 902       4.846  23.051   3.795  1.00 36.25     0.278 C 
BRANCH  17  18
HETATM   18  C32 MK1 B 902       3.576  23.290   2.971  1.00 42.75     0.030 A 
HETATM   19  C33 MK1 B 902       3.318  24.490   2.294  1.00 47.41     0.097 A 
HETATM   20  N5  MK1 B 902       2.191  24.776   1.506  1.00 51.38    -0.243 NA
HETATM   21  C34 MK1 B 902       1.324  23.685   1.471  1.00 50.60     0.099 A 
HETATM   22  C35 MK1 B 902       1.519  22.463   2.121  1.00 49.34     0.020 A 
HETATM   23  C36 MK1 B 902       2.666  22.259   2.884  1.00 44.71     0.001 A 
ENDBRANCH  17  18
ENDBRANCH   7  17
ENDBRANCH   3   4
ENDBRANCH   2   3
BRANCH   2  24
HETATM   24  C12 MK1 B 902      11.338  22.913   3.988  1.00 21.49     0.045 C 
BRANCH  24  25
HETATM   25  C13 MK1 B 902      11.828  23.206   5.413  1.00 26.89     0.088 C 
BRANCH  25  26
HETATM   26  C14 MK1 B 902      10.677  23.606   6.355  1.00 28.67     0.036 C 
BRANCH  26  27
HETATM   27  C15 MK1 B 902      11.110  24.561   7.406  1.00 26.89    -0.022 A 
HETATM   28  C16 MK1 B 902      12.427  25.009   7.519  1.00 29.22    -0.004 A 
HETATM   29  C17 MK1 B 902      12.794  25.874   8.538  1.00 29.22    -0.000 A 
HETATM   30  C18 MK1 B 902      11.822  26.287   9.453  1.00 30.97    -0.000 A 
HETATM   31  C19 MK1 B 902      10.498  25.846   9.338  1.00 29.25    -0.000 A 
HETATM   32  C20 MK1 B 902      10.144  24.977   8.307  1.00 29.96    -0.004 A 
ENDBRANCH  26  27
ENDBRANCH  25  26
BRANCH  25  33
HETATM   33  C21 MK1 B 902      12.571  22.021   6.019  1.00 29.35     0.252 C 
HETATM   34  O3  MK1 B 902      11.983  21.218   6.759  1.00 32.66    -0.271 OA
HETATM   35  N4  MK1 B 902      13.882  21.996   5.795  1.00 31.19    -0.233 NA
BRANCH  35  36
HETATM   36  C22 MK1 B 902      14.769  21.138   6.562  1.00 29.22     0.159 C 
HETATM   37  C23 MK1 B 902      15.586  21.923   7.574  1.00 28.82     0.183 C 
HETATM   38  O4  MK1 B 902      15.890  23.214   7.066  1.00 28.32    -0.221 OA
HETATM   39  C24 MK1 B 902      16.804  21.070   7.848  1.00 32.05     0.061 C 
HETATM   40  C25 MK1 B 902      17.178  20.269   6.626  1.00 31.29    -0.022 A 
HETATM   41  C26 MK1 B 902      18.291  19.623   6.142  1.00 32.00    -0.004 A 
HETATM   42  C30 MK1 B 902      15.860  20.337   5.803  1.00 31.86    -0.001 A 
HETATM   43  C27 MK1 B 902      18.209  19.010   4.887  1.00 28.00    -0.000 A 
HETATM   44  C28 MK1 B 902      17.021  19.053   4.142  1.00 29.01    -0.000 A 
HETATM   45  C29 MK1 B 902      15.885  19.708   4.599  1.00 27.70    -0.003 A 
ENDBRANCH  35  36
ENDBRANCH  25  33
ENDBRANCH  24  25
ENDBRANCH   2  24
TORSDOF 12
ENDMDL
