MODEL 1
REMARK VINA RESULT:    -6.752      0.000      0.000
REMARK INTER + INTRA:         -13.870
REMARK INTER:                 -11.489
REMARK INTRA:                  -2.381
REMARK UNBOUND:                -2.381
REMARK  12 active torsions:
REMARK  status: ('A' for Active; 'I' for Inactive)
REMARK    1  A    between atoms: N1_2  and  C31_40 
REMARK    2  A    between atoms: C2_4  and  C3_7 
REMARK       I    between atoms: N2_5  and  C3_7 
REMARK    3  A    between atoms: N2_5  and  C4_10 
REMARK    4  A    between atoms: N3_8  and  C10_19 
REMARK       I    between atoms: N4_11  and  C21_30 
REMARK    5  A    between atoms: N4_11  and  C22_31 
REMARK    6  A    between atoms: C10_19  and  C11_20 
REMARK    7  A    between atoms: C11_20  and  C12_21 
REMARK    8  A    between atoms: C12_21  and  C13_22 
REMARK    9  A    between atoms: C13_22  and  C14_23 
REMARK   10  A    between atoms: C13_22  and  C21_30 
REMARK   11  A    between atoms: C14_23  and  C15_24 
REMARK   12  A    between atoms: C31_40  and  C32_41 
ROOT
HETATM    1  O2  MK1 B 902      20.628   9.453 -18.062  1.00 15.87    -0.221 OA
HETATM    2  C11 MK1 B 902      21.059  10.762 -17.836  1.00 21.68     0.174 C 
ENDROOT
BRANCH   2   3
HETATM    3  C10 MK1 B 902      21.216  10.598 -16.324  1.00 20.86     0.131 C 
BRANCH   3   4
HETATM    4  N3  MK1 B 902      21.836   9.350 -15.924  1.00 28.91    -0.357 N 
HETATM    5  C2  MK1 B 902      23.327   9.349 -15.723  1.00 27.27     0.192 C 
HETATM    6  C1  MK1 B 902      23.568   7.938 -15.223  1.00 30.30     0.282 C 
HETATM    7  N1  MK1 B 902      22.897   7.426 -13.998  1.00 28.25     0.146 N 
HETATM    8  C9  MK1 B 902      21.524   7.443 -14.238  1.00 27.47     0.274 C 
HETATM    9  C8  MK1 B 902      20.974   8.681 -14.917  1.00 26.24     0.133 C 
BRANCH   5  10
HETATM   10  C3  MK1 B 902      24.096   9.536 -17.002  1.00 28.85     0.273 C 
HETATM   11  O1  MK1 B 902      23.915   8.780 -17.949  1.00 29.59    -0.269 OA
HETATM   12  N2  MK1 B 902      24.963  10.528 -17.039  1.00 22.29    -0.240 NA
BRANCH  12  13
HETATM   13  C4  MK1 B 902      25.781  11.001 -18.110  1.00 23.47     0.088 C 
HETATM   14  C5  MK1 B 902      26.611  12.175 -17.556  1.00 27.66     0.025 C 
HETATM   15  C6  MK1 B 902      25.055  11.405 -19.219  1.00 21.71     0.025 C 
HETATM   16  C7  MK1 B 902      26.779  10.026 -18.561  1.00 22.75     0.025 C 
ENDBRANCH  12  13
ENDBRANCH   5  10
BRANCH   7  17
HETATM   17  C31 MK1 B 902      23.405   6.172 -13.428  1.00 36.25     0.278 C 
BRANCH  17  18
HETATM   18  C32 MK1 B 902      23.127   5.788 -11.970  1.00 42.75     0.030 A 
HETATM   19  C33 MK1 B 902      22.816   6.728 -10.977  1.00 47.41     0.097 A 
HETATM   20  N5  MK1 B 902      22.531   6.451  -9.629  1.00 51.38    -0.243 NA
HETATM   21  C34 MK1 B 902      22.592   5.080  -9.383  1.00 50.60     0.099 A 
HETATM   22  C35 MK1 B 902      22.895   4.092 -10.324  1.00 49.34     0.020 A 
HETATM   23  C36 MK1 B 902      23.166   4.450 -11.642  1.00 44.71     0.001 A 
ENDBRANCH  17  18
ENDBRANCH   7  17
ENDBRANCH   3   4
ENDBRANCH   2   3
BRANCH   2  24
HETATM   24  C12 MK1 B 902      20.050  11.716 -18.502  1.00 21.49     0.045 C 
BRANCH  24  25
HETATM   25  C13 MK1 B 902      20.293  13.232 -18.506  1.00 26.89     0.088 C 
BRANCH  25  26
HETATM   26  C14 MK1 B 902      21.277  13.662 -19.608  1.00 28.67     0.036 C 
BRANCH  26  27
HETATM   27  C15 MK1 B 902      22.533  14.230 -19.057  1.00 26.89    -0.022 A 
HETATM   28  C16 MK1 B 902      22.922  14.047 -17.728  1.00 29.22    -0.004 A 
HETATM   29  C17 MK1 B 902      24.086  14.626 -17.246  1.00 29.22    -0.000 A 
HETATM   30  C18 MK1 B 902      24.862  15.399 -18.114  1.00 30.97    -0.000 A 
HETATM   31  C19 MK1 B 902      24.479  15.578 -19.449  1.00 29.25    -0.000 A 
HETATM   32  C20 MK1 B 902      23.306  14.989 -19.919  1.00 29.96    -0.004 A 
ENDBRANCH  26  27
ENDBRANCH  25  26
BRANCH  25  33
HETATM   33  C21 MK1 B 902      18.998  14.019 -18.667  1.00 29.35     0.252 C 
HETATM   34  O3  MK1 B 902      17.903  13.490 -18.422  1.00 32.66    -0.271 OA
HETATM   35  N4  MK1 B 902      19.130  15.233 -19.194  1.00 31.19    -0.233 NA
BRANCH  35  36
HETATM   36  C22 MK1 B 902      17.988  15.966 -19.713  1.00 29.22     0.159 C 
HETATM   37  C23 MK1 B 902      17.905  15.894 -21.228  1.00 28.82     0.183 C 
HETATM   38  O4  MK1 B 902      19.207  15.852 -21.791  1.00 28.32    -0.221 OA
HETATM   39  C24 MK1 B 902      17.098  17.105 -21.639  1.00 32.05     0.061 C 
HETATM   40  C25 MK1 B 902      17.322  18.245 -20.676  1.00 31.29    -0.022 A 
HETATM   41  C26 MK1 B 902      17.174  19.612 -20.675  1.00 32.00    -0.004 A 
HETATM   42  C30 MK1 B 902      17.909  17.493 -19.448  1.00 31.86    -0.001 A 
HETATM   43  C27 MK1 B 902      17.555  20.319 -19.530  1.00 28.00    -0.000 A 
HETATM   44  C28 MK1 B 902      18.073  19.650 -18.411  1.00 29.01    -0.000 A 
HETATM   45  C29 MK1 B 902      18.245  18.273 -18.386  1.00 27.70    -0.003 A 
ENDBRANCH  35  36
ENDBRANCH  25  33
ENDBRANCH  24  25
ENDBRANCH   2  24
TORSDOF 12
ENDMDL
MODEL 2
REMARK VINA RESULT:    -6.110      1.883      2.847
REMARK INTER + INTRA:         -12.778
REMARK INTER:                 -11.119
REMARK INTRA:                  -1.659
REMARK UNBOUND:                -2.381
REMARK  12 active torsions:
REMARK  status: ('A' for Active; 'I' for Inactive)
REMARK    1  A    between atoms: N1_2  and  C31_40 
REMARK    2  A    between atoms: C2_4  and  C3_7 
REMARK       I    between atoms: N2_5  and  C3_7 
REMARK    3  A    between atoms: N2_5  and  C4_10 
REMARK    4  A    between atoms: N3_8  and  C10_19 
REMARK       I    between atoms: N4_11  and  C21_30 
REMARK    5  A    between atoms: N4_11  and  C22_31 
REMARK    6  A    between atoms: C10_19  and  C11_20 
REMARK    7  A    between atoms: C11_20  and  C12_21 
REMARK    8  A    between atoms: C12_21  and  C13_22 
REMARK    9  A    between atoms: C13_22  and  C14_23 
REMARK   10  A    between atoms: C13_22  and  C21_30 
REMARK   11  A    between atoms: C14_23  and  C15_24 
REMARK   12  A    between atoms: C31_40  and  C32_41 
ROOT
HETATM    1  O2  MK1 B 902      20.799   9.709 -18.854  1.00 15.87    -0.221 OA
HETATM    2  C11 MK1 B 902      21.435  10.879 -18.434  1.00 21.68     0.174 C 
ENDROOT
BRANCH   2   3
HETATM    3  C10 MK1 B 902      22.455  10.169 -17.542  1.00 20.86     0.131 C 
BRANCH   3   4
HETATM    4  N3  MK1 B 902      21.870   9.243 -16.592  1.00 28.91    -0.357 N 
HETATM    5  C2  MK1 B 902      22.485   7.873 -16.489  1.00 27.27     0.192 C 
HETATM    6  C1  MK1 B 902      21.687   7.264 -15.353  1.00 30.30     0.282 C 
HETATM    7  N1  MK1 B 902      21.649   7.898 -14.008  1.00 28.25     0.146 N 
HETATM    8  C9  MK1 B 902      21.069   9.157 -14.158  1.00 27.47     0.274 C 
HETATM    9  C8  MK1 B 902      21.533   9.975 -15.346  1.00 26.24     0.133 C 
BRANCH   5  10
HETATM   10  C3  MK1 B 902      22.271   7.036 -17.721  1.00 28.85     0.273 C 
HETATM   11  O1  MK1 B 902      23.163   6.922 -18.553  1.00 29.59    -0.269 OA
HETATM   12  N2  MK1 B 902      21.093   6.460 -17.855  1.00 22.29    -0.240 NA
BRANCH  12  13
HETATM   13  C4  MK1 B 902      20.612   5.565 -18.858  1.00 23.47     0.088 C 
HETATM   14  C5  MK1 B 902      19.216   5.093 -18.407  1.00 27.66     0.025 C 
HETATM   15  C6  MK1 B 902      21.443   4.476 -19.068  1.00 21.71     0.025 C 
HETATM   16  C7  MK1 B 902      20.382   6.206 -20.156  1.00 22.75     0.025 C 
ENDBRANCH  12  13
ENDBRANCH   5  10
BRANCH   7  17
HETATM   17  C31 MK1 B 902      21.105   7.098 -12.903  1.00 36.25     0.278 C 
BRANCH  17  18
HETATM   18  C32 MK1 B 902      22.018   6.275 -11.988  1.00 42.75     0.030 A 
HETATM   19  C33 MK1 B 902      22.598   6.793 -10.820  1.00 47.41     0.097 A 
HETATM   20  N5  MK1 B 902      23.427   6.097  -9.924  1.00 51.38    -0.243 NA
HETATM   21  C34 MK1 B 902      23.612   4.780 -10.343  1.00 50.60     0.099 A 
HETATM   22  C35 MK1 B 902      23.065   4.203 -11.492  1.00 49.34     0.020 A 
HETATM   23  C36 MK1 B 902      22.252   4.961 -12.331  1.00 44.71     0.001 A 
ENDBRANCH  17  18
ENDBRANCH   7  17
ENDBRANCH   3   4
ENDBRANCH   2   3
BRANCH   2  24
HETATM   24  C12 MK1 B 902      20.357  11.846 -17.913  1.00 21.49     0.045 C 
BRANCH  24  25
HETATM   25  C13 MK1 B 902      20.483  13.358 -18.150  1.00 26.89     0.088 C 
BRANCH  25  26
HETATM   26  C14 MK1 B 902      21.367  13.687 -19.366  1.00 28.67     0.036 C 
BRANCH  26  27
HETATM   27  C15 MK1 B 902      22.676  14.266 -18.975  1.00 26.89    -0.022 A 
HETATM   28  C16 MK1 B 902      23.212  14.119 -17.694  1.00 29.22    -0.004 A 
HETATM   29  C17 MK1 B 902      24.423  14.709 -17.363  1.00 29.22    -0.000 A 
HETATM   30  C18 MK1 B 902      25.096  15.454 -18.334  1.00 30.97    -0.000 A 
HETATM   31  C19 MK1 B 902      24.566  15.596 -19.622  1.00 29.25    -0.000 A 
HETATM   32  C20 MK1 B 902      23.348  14.997 -19.940  1.00 29.96    -0.004 A 
ENDBRANCH  26  27
ENDBRANCH  25  26
BRANCH  25  33
HETATM   33  C21 MK1 B 902      19.124  14.024 -18.333  1.00 29.35     0.252 C 
HETATM   34  O3  MK1 B 902      18.079  13.360 -18.252  1.00 32.66    -0.271 OA
HETATM   35  N4  MK1 B 902      19.161  15.302 -18.701  1.00 31.19    -0.233 NA
BRANCH  35  36
HETATM   36  C22 MK1 B 902      17.987  15.975 -19.230  1.00 29.22     0.159 C 
HETATM   37  C23 MK1 B 902      17.790  15.697 -20.711  1.00 28.82     0.183 C 
HETATM   38  O4  MK1 B 902      19.047  15.556 -21.357  1.00 28.32    -0.221 OA
HETATM   39  C24 MK1 B 902      16.962  16.852 -21.226  1.00 32.05     0.061 C 
HETATM   40  C25 MK1 B 902      17.264  18.110 -20.449  1.00 31.29    -0.022 A 
HETATM   41  C26 MK1 B 902      17.125  19.466 -20.627  1.00 32.00    -0.004 A 
HETATM   42  C30 MK1 B 902      17.937  17.525 -19.175  1.00 31.86    -0.001 A 
HETATM   43  C27 MK1 B 902      17.595  20.318 -19.621  1.00 28.00    -0.000 A 
HETATM   44  C28 MK1 B 902      18.191  19.801 -18.461  1.00 29.01    -0.000 A 
HETATM   45  C29 MK1 B 902      18.356  18.438 -18.259  1.00 27.70    -0.003 A 
ENDBRANCH  35  36
ENDBRANCH  25  33
ENDBRANCH  24  25
ENDBRANCH   2  24
TORSDOF 12
ENDMDL
MODEL 3
REMARK VINA RESULT:    -5.956      2.424      4.461
REMARK INTER + INTRA:         -12.515
REMARK INTER:                 -10.754
REMARK INTRA:                  -1.760
REMARK UNBOUND:                -2.381
REMARK  12 active torsions:
REMARK  status: ('A' for Active; 'I' for Inactive)
REMARK    1  A    between atoms: N1_2  and  C31_40 
REMARK    2  A    between atoms: C2_4  and  C3_7 
REMARK       I    between atoms: N2_5  and  C3_7 
REMARK    3  A    between atoms: N2_5  and  C4_10 
REMARK    4  A    between atoms: N3_8  and  C10_19 
REMARK       I    between atoms: N4_11  and  C21_30 
REMARK    5  A    between atoms: N4_11  and  C22_31 
REMARK    6  A    between atoms: C10_19  and  C11_20 
REMARK    7  A    between atoms: C11_20  and  C12_21 
REMARK    8  A    between atoms: C12_21  and  C13_22 
REMARK    9  A    between atoms: C13_22  and  C14_23 
REMARK   10  A    between atoms: C13_22  and  C21_30 
REMARK   11  A    between atoms: C14_23  and  C15_24 
REMARK   12  A    between atoms: C31_40  and  C32_41 
ROOT
HETATM    1  O2  MK1 B 902      20.078  11.002 -21.483  1.00 15.87    -0.221 OA
HETATM    2  C11 MK1 B 902      20.377  11.779 -20.363  1.00 21.68     0.174 C 
ENDROOT
BRANCH   2   3
HETATM    3  C10 MK1 B 902      19.956  10.721 -19.342  1.00 20.86     0.131 C 
BRANCH   3   4
HETATM    4  N3  MK1 B 902      21.029  10.268 -18.480  1.00 28.91    -0.357 N 
HETATM    5  C2  MK1 B 902      21.271  11.037 -17.209  1.00 27.27     0.192 C 
HETATM    6  C1  MK1 B 902      22.365  10.215 -16.556  1.00 30.30     0.282 C 
HETATM    7  N1  MK1 B 902      22.167   8.775 -16.240  1.00 28.25     0.146 N 
HETATM    8  C9  MK1 B 902      21.952   8.110 -17.447  1.00 27.47     0.274 C 
HETATM    9  C8  MK1 B 902      21.019   8.784 -18.431  1.00 26.24     0.133 C 
BRANCH   5  10
HETATM   10  C3  MK1 B 902      21.799  12.425 -17.450  1.00 28.85     0.273 C 
HETATM   11  O1  MK1 B 902      21.144  13.403 -17.111  1.00 29.59    -0.269 OA
HETATM   12  N2  MK1 B 902      22.971  12.523 -18.045  1.00 22.29    -0.240 NA
BRANCH  12  13
HETATM   13  C4  MK1 B 902      23.760  13.674 -18.347  1.00 23.47     0.088 C 
HETATM   14  C5  MK1 B 902      22.943  14.535 -19.329  1.00 27.66     0.025 C 
HETATM   15  C6  MK1 B 902      24.997  13.365 -18.892  1.00 21.71     0.025 C 
HETATM   16  C7  MK1 B 902      23.988  14.549 -17.193  1.00 22.75     0.025 C 
ENDBRANCH  12  13
ENDBRANCH   5  10
BRANCH   7  17
HETATM   17  C31 MK1 B 902      23.151   8.140 -15.355  1.00 36.25     0.278 C 
BRANCH  17  18
HETATM   18  C32 MK1 B 902      22.761   7.635 -13.960  1.00 42.75     0.030 A 
HETATM   19  C33 MK1 B 902      23.678   7.049 -13.076  1.00 47.41     0.097 A 
HETATM   20  N5  MK1 B 902      23.402   6.582 -11.780  1.00 51.38    -0.243 NA
HETATM   21  C34 MK1 B 902      22.059   6.778 -11.460  1.00 50.60     0.099 A 
HETATM   22  C35 MK1 B 902      21.095   7.354 -12.293  1.00 49.34     0.020 A 
HETATM   23  C36 MK1 B 902      21.451   7.793 -13.566  1.00 44.71     0.001 A 
ENDBRANCH  17  18
ENDBRANCH   7  17
ENDBRANCH   3   4
ENDBRANCH   2   3
BRANCH   2  24
HETATM   24  C12 MK1 B 902      19.683  13.143 -20.531  1.00 21.49     0.045 C 
BRANCH  24  25
HETATM   25  C13 MK1 B 902      18.154  13.259 -20.440  1.00 26.89     0.088 C 
BRANCH  25  26
HETATM   26  C14 MK1 B 902      17.637  13.044 -19.006  1.00 28.67     0.036 C 
BRANCH  26  27
HETATM   27  C15 MK1 B 902      16.272  12.462 -18.977  1.00 26.89    -0.022 A 
HETATM   28  C16 MK1 B 902      15.230  13.025 -18.237  1.00 29.22    -0.004 A 
HETATM   29  C17 MK1 B 902      13.979  12.427 -18.210  1.00 29.22    -0.000 A 
HETATM   30  C18 MK1 B 902      13.780  11.249 -18.936  1.00 30.97    -0.000 A 
HETATM   31  C19 MK1 B 902      14.820  10.687 -19.685  1.00 29.25    -0.000 A 
HETATM   32  C20 MK1 B 902      16.072  11.301 -19.703  1.00 29.96    -0.004 A 
ENDBRANCH  26  27
ENDBRANCH  25  26
BRANCH  25  33
HETATM   33  C21 MK1 B 902      17.651  14.604 -20.950  1.00 29.35     0.252 C 
HETATM   34  O3  MK1 B 902      16.907  14.665 -21.941  1.00 32.66    -0.271 OA
HETATM   35  N4  MK1 B 902      18.160  15.671 -20.341  1.00 31.19    -0.233 NA
BRANCH  35  36
HETATM   36  C22 MK1 B 902      18.043  17.002 -20.913  1.00 29.22     0.159 C 
HETATM   37  C23 MK1 B 902      19.069  17.243 -22.008  1.00 28.82     0.183 C 
HETATM   38  O4  MK1 B 902      20.275  16.553 -21.713  1.00 28.32    -0.221 OA
HETATM   39  C24 MK1 B 902      19.225  18.745 -22.082  1.00 32.05     0.061 C 
HETATM   40  C25 MK1 B 902      19.003  19.369 -20.726  1.00 31.29    -0.022 A 
HETATM   41  C26 MK1 B 902      19.316  20.549 -20.093  1.00 32.00    -0.004 A 
HETATM   42  C30 MK1 B 902      18.255  18.226 -19.984  1.00 31.86    -0.001 A 
HETATM   43  C27 MK1 B 902      18.931  20.707 -18.757  1.00 28.00    -0.000 A 
HETATM   44  C28 MK1 B 902      18.243  19.688 -18.082  1.00 29.01    -0.000 A 
HETATM   45  C29 MK1 B 902      17.924  18.482 -18.690  1.00 27.70    -0.003 A 
ENDBRANCH  35  36
ENDBRANCH  25  33
ENDBRANCH  24  25
ENDBRANCH   2  24
TORSDOF 12
ENDMDL
MODEL 4
REMARK VINA RESULT:    -5.925      2.864      6.086
REMARK INTER + INTRA:         -12.463
REMARK INTER:                 -10.493
REMARK INTRA:                  -1.971
REMARK UNBOUND:                -2.381
REMARK  12 active torsions:
REMARK  status: ('A' for Active; 'I' for Inactive)
REMARK    1  A    between atoms: N1_2  and  C31_40 
REMARK    2  A    between atoms: C2_4  and  C3_7 
REMARK       I    between atoms: N2_5  and  C3_7 
REMARK    3  A    between atoms: N2_5  and  C4_10 
REMARK    4  A    between atoms: N3_8  and  C10_19 
REMARK       I    between atoms: N4_11  and  C21_30 
REMARK    5  A    between atoms: N4_11  and  C22_31 
REMARK    6  A    between atoms: C10_19  and  C11_20 
REMARK    7  A    between atoms: C11_20  and  C12_21 
REMARK    8  A    between atoms: C12_21  and  C13_22 
REMARK    9  A    between atoms: C13_22  and  C14_23 
REMARK   10  A    between atoms: C13_22  and  C21_30 
REMARK   11  A    between atoms: C14_23  and  C15_24 
REMARK   12  A    between atoms: C31_40  and  C32_41 
ROOT
HETATM    1  O2  MK1 B 902      19.457  15.374 -18.037  1.00 15.87    -0.221 OA
HETATM    2  C11 MK1 B 902      19.572  14.742 -19.276  1.00 21.68     0.174 C 
ENDROOT
BRANCH   2   3
HETATM    3  C10 MK1 B 902      21.087  14.553 -19.196  1.00 20.86     0.131 C 
BRANCH   3   4
HETATM    4  N3  MK1 B 902      21.503  13.185 -18.957  1.00 28.91    -0.357 N 
HETATM    5  C2  MK1 B 902      22.223  12.893 -17.667  1.00 27.27     0.192 C 
HETATM    6  C1  MK1 B 902      22.388  11.388 -17.743  1.00 30.30     0.282 C 
HETATM    7  N1  MK1 B 902      21.213  10.485 -17.877  1.00 28.25     0.146 N 
HETATM    8  C9  MK1 B 902      20.588  10.793 -19.084  1.00 27.47     0.274 C 
HETATM    9  C8  MK1 B 902      20.428  12.265 -19.404  1.00 26.24     0.133 C 
BRANCH   5  10
HETATM   10  C3  MK1 B 902      23.589  13.518 -17.599  1.00 28.85     0.273 C 
HETATM   11  O1  MK1 B 902      23.782  14.509 -16.905  1.00 29.59    -0.269 OA
HETATM   12  N2  MK1 B 902      24.539  12.959 -18.322  1.00 22.29    -0.240 NA
BRANCH  12  13
HETATM   13  C4  MK1 B 902      25.930  13.268 -18.418  1.00 23.47     0.088 C 
HETATM   14  C5  MK1 B 902      26.537  12.295 -19.447  1.00 27.66     0.025 C 
HETATM   15  C6  MK1 B 902      26.599  13.169 -17.208  1.00 21.71     0.025 C 
HETATM   16  C7  MK1 B 902      26.199  14.600 -18.969  1.00 22.75     0.025 C 
ENDBRANCH  12  13
ENDBRANCH   5  10
BRANCH   7  17
HETATM   17  C31 MK1 B 902      21.436   9.053 -17.648  1.00 36.25     0.278 C 
BRANCH  17  18
HETATM   18  C32 MK1 B 902      21.675   8.497 -16.239  1.00 42.75     0.030 A 
HETATM   19  C33 MK1 B 902      20.996   8.967 -15.106  1.00 47.41     0.097 A 
HETATM   20  N5  MK1 B 902      21.146   8.496 -13.791  1.00 51.38    -0.243 NA
HETATM   21  C34 MK1 B 902      22.084   7.465 -13.739  1.00 50.60     0.099 A 
HETATM   22  C35 MK1 B 902      22.795   6.951 -14.827  1.00 49.34     0.020 A 
HETATM   23  C36 MK1 B 902      22.588   7.474 -16.101  1.00 44.71     0.001 A 
ENDBRANCH  17  18
ENDBRANCH   7  17
ENDBRANCH   3   4
ENDBRANCH   2   3
BRANCH   2  24
HETATM   24  C12 MK1 B 902      18.865  15.618 -20.325  1.00 21.49     0.045 C 
BRANCH  24  25
HETATM   25  C13 MK1 B 902      17.401  16.040 -20.134  1.00 26.89     0.088 C 
BRANCH  25  26
HETATM   26  C14 MK1 B 902      17.075  17.362 -20.852  1.00 28.67     0.036 C 
BRANCH  26  27
HETATM   27  C15 MK1 B 902      17.666  18.539 -20.168  1.00 26.89    -0.022 A 
HETATM   28  C16 MK1 B 902      18.215  19.617 -20.864  1.00 29.22    -0.004 A 
HETATM   29  C17 MK1 B 902      18.788  20.681 -20.184  1.00 29.22    -0.000 A 
HETATM   30  C18 MK1 B 902      18.808  20.653 -18.787  1.00 30.97    -0.000 A 
HETATM   31  C19 MK1 B 902      18.251  19.577 -18.085  1.00 29.25    -0.000 A 
HETATM   32  C20 MK1 B 902      17.678  18.515 -18.784  1.00 29.96    -0.004 A 
ENDBRANCH  26  27
ENDBRANCH  25  26
BRANCH  25  33
HETATM   33  C21 MK1 B 902      16.429  14.967 -20.612  1.00 29.35     0.252 C 
HETATM   34  O3  MK1 B 902      15.661  15.188 -21.561  1.00 32.66    -0.271 OA
HETATM   35  N4  MK1 B 902      16.390  13.863 -19.871  1.00 31.19    -0.233 NA
BRANCH  35  36
HETATM   36  C22 MK1 B 902      15.304  12.904 -19.991  1.00 29.22     0.159 C 
HETATM   37  C23 MK1 B 902      14.430  12.874 -18.749  1.00 28.82     0.183 C 
HETATM   38  O4  MK1 B 902      15.212  13.124 -17.591  1.00 28.32    -0.221 OA
HETATM   39  C24 MK1 B 902      13.769  11.515 -18.761  1.00 32.05     0.061 C 
HETATM   40  C25 MK1 B 902      14.670  10.492 -19.408  1.00 31.29    -0.022 A 
HETATM   41  C26 MK1 B 902      14.801   9.123 -19.418  1.00 32.00    -0.004 A 
HETATM   42  C30 MK1 B 902      15.661  11.406 -20.183  1.00 31.86    -0.001 A 
HETATM   43  C27 MK1 B 902      15.848   8.563 -20.159  1.00 28.00    -0.000 A 
HETATM   44  C28 MK1 B 902      16.739   9.378 -20.874  1.00 29.01    -0.000 A 
HETATM   45  C29 MK1 B 902      16.639  10.762 -20.872  1.00 27.70    -0.003 A 
ENDBRANCH  35  36
ENDBRANCH  25  33
ENDBRANCH  24  25
ENDBRANCH   2  24
TORSDOF 12
ENDMDL
MODEL 5
REMARK VINA RESULT:    -5.875     11.372     15.129
REMARK INTER + INTRA:         -12.378
REMARK INTER:                  -9.203
REMARK INTRA:                  -3.176
REMARK UNBOUND:                -2.381
REMARK  12 active torsions:
REMARK  status: ('A' for Active; 'I' for Inactive)
REMARK    1  A    between atoms: N1_2  and  C31_40 
REMARK    2  A    between atoms: C2_4  and  C3_7 
REMARK       I    between atoms: N2_5  and  C3_7 
REMARK    3  A    between atoms: N2_5  and  C4_10 
REMARK    4  A    between atoms: N3_8  and  C10_19 
REMARK       I    between atoms: N4_11  and  C21_30 
REMARK    5  A    between atoms: N4_11  and  C22_31 
REMARK    6  A    between atoms: C10_19  and  C11_20 
REMARK    7  A    between atoms: C11_20  and  C12_21 
REMARK    8  A    between atoms: C12_21  and  C13_22 
REMARK    9  A    between atoms: C13_22  and  C14_23 
REMARK   10  A    between atoms: C13_22  and  C21_30 
REMARK   11  A    between atoms: C14_23  and  C15_24 
REMARK   12  A    between atoms: C31_40  and  C32_41 
ROOT
HETATM    1  O2  MK1 B 902      30.798  12.540 -10.131  1.00 15.87    -0.221 OA
HETATM    2  C11 MK1 B 902      30.199  13.702  -9.643  1.00 21.68     0.174 C 
ENDROOT
BRANCH   2   3
HETATM    3  C10 MK1 B 902      31.514  14.401  -9.296  1.00 20.86     0.131 C 
BRANCH   3   4
HETATM    4  N3  MK1 B 902      31.353  15.743  -8.772  1.00 28.91    -0.357 N 
HETATM    5  C2  MK1 B 902      30.309  16.618  -9.412  1.00 27.27     0.192 C 
HETATM    6  C1  MK1 B 902      30.374  17.859  -8.542  1.00 30.30     0.282 C 
HETATM    7  N1  MK1 B 902      30.138  17.789  -7.075  1.00 28.25     0.146 N 
HETATM    8  C9  MK1 B 902      31.130  16.973  -6.533  1.00 27.47     0.274 C 
HETATM    9  C8  MK1 B 902      31.444  15.700  -7.291  1.00 26.24     0.133 C 
BRANCH   5  10
HETATM   10  C3  MK1 B 902      30.652  17.010 -10.823  1.00 28.85     0.273 C 
HETATM   11  O1  MK1 B 902      31.485  17.882 -11.038  1.00 29.59    -0.269 OA
HETATM   12  N2  MK1 B 902      30.009  16.386 -11.790  1.00 22.29    -0.240 NA
BRANCH  12  13
HETATM   13  C4  MK1 B 902      30.154  16.480 -13.207  1.00 23.47     0.088 C 
HETATM   14  C5  MK1 B 902      31.633  16.194 -13.528  1.00 27.66     0.025 C 
HETATM   15  C6  MK1 B 902      29.780  17.714 -13.717  1.00 21.71     0.025 C 
HETATM   16  C7  MK1 B 902      29.412  15.451 -13.942  1.00 22.75     0.025 C 
ENDBRANCH  12  13
ENDBRANCH   5  10
BRANCH   7  17
HETATM   17  C31 MK1 B 902      29.929  19.057  -6.367  1.00 36.25     0.278 C 
BRANCH  17  18
HETATM   18  C32 MK1 B 902      29.664  19.094  -4.857  1.00 42.75     0.030 A 
HETATM   19  C33 MK1 B 902      30.593  19.587  -3.929  1.00 47.41     0.097 A 
HETATM   20  N5  MK1 B 902      30.415  19.672  -2.538  1.00 51.38    -0.243 NA
HETATM   21  C34 MK1 B 902      29.159  19.193  -2.171  1.00 50.60     0.099 A 
HETATM   22  C35 MK1 B 902      28.188  18.689  -3.042  1.00 49.34     0.020 A 
HETATM   23  C36 MK1 B 902      28.443  18.639  -4.410  1.00 44.71     0.001 A 
ENDBRANCH  17  18
ENDBRANCH   7  17
ENDBRANCH   3   4
ENDBRANCH   2   3
BRANCH   2  24
HETATM   24  C12 MK1 B 902      29.138  13.292  -8.605  1.00 21.49     0.045 C 
BRANCH  24  25
HETATM   25  C13 MK1 B 902      27.786  14.015  -8.541  1.00 26.89     0.088 C 
BRANCH  25  26
HETATM   26  C14 MK1 B 902      26.598  13.038  -8.610  1.00 28.67     0.036 C 
BRANCH  26  27
HETATM   27  C15 MK1 B 902      27.021  11.621  -8.479  1.00 26.89    -0.022 A 
HETATM   28  C16 MK1 B 902      27.100  10.971  -7.245  1.00 29.22    -0.004 A 
HETATM   29  C17 MK1 B 902      27.535   9.657  -7.166  1.00 29.22    -0.000 A 
HETATM   30  C18 MK1 B 902      27.893   8.995  -8.343  1.00 30.97    -0.000 A 
HETATM   31  C19 MK1 B 902      27.807   9.640  -9.582  1.00 29.25    -0.000 A 
HETATM   32  C20 MK1 B 902      27.368  10.962  -9.646  1.00 29.96    -0.004 A 
ENDBRANCH  26  27
ENDBRANCH  25  26
BRANCH  25  33
HETATM   33  C21 MK1 B 902      27.650  14.867  -7.284  1.00 29.35     0.252 C 
HETATM   34  O3  MK1 B 902      27.279  16.048  -7.359  1.00 32.66    -0.271 OA
HETATM   35  N4  MK1 B 902      28.072  14.294  -6.160  1.00 31.19    -0.233 NA
BRANCH  35  36
HETATM   36  C22 MK1 B 902      28.318  15.070  -4.956  1.00 29.22     0.159 C 
HETATM   37  C23 MK1 B 902      29.487  14.524  -4.155  1.00 28.82     0.183 C 
HETATM   38  O4  MK1 B 902      29.550  13.111  -4.277  1.00 28.32    -0.221 OA
HETATM   39  C24 MK1 B 902      29.261  15.009  -2.741  1.00 32.05     0.061 C 
HETATM   40  C25 MK1 B 902      27.786  15.131  -2.451  1.00 31.29    -0.022 A 
HETATM   41  C26 MK1 B 902      26.974  15.177  -1.342  1.00 32.00    -0.004 A 
HETATM   42  C30 MK1 B 902      27.194  15.153  -3.889  1.00 31.86    -0.001 A 
HETATM   43  C27 MK1 B 902      25.591  15.260  -1.536  1.00 28.00    -0.000 A 
HETATM   44  C28 MK1 B 902      25.047  15.295  -2.829  1.00 29.01    -0.000 A 
HETATM   45  C29 MK1 B 902      25.840  15.238  -3.967  1.00 27.70    -0.003 A 
ENDBRANCH  35  36
ENDBRANCH  25  33
ENDBRANCH  24  25
ENDBRANCH   2  24
TORSDOF 12
ENDMDL
MODEL 6
REMARK VINA RESULT:    -5.872      3.217     11.231
REMARK INTER + INTRA:         -12.372
REMARK INTER:                  -9.905
REMARK INTRA:                  -2.467
REMARK UNBOUND:                -2.381
REMARK  12 active torsions:
REMARK  status: ('A' for Active; 'I' for Inactive)
REMARK    1  A    between atoms: N1_2  and  C31_40 
REMARK    2  A    between atoms: C2_4  and  C3_7 
REMARK       I    between atoms: N2_5  and  C3_7 
REMARK    3  A    between atoms: N2_5  and  C4_10 
REMARK    4  A    between atoms: N3_8  and  C10_19 
REMARK       I    between atoms: N4_11  and  C21_30 
REMARK    5  A    between atoms: N4_11  and  C22_31 
REMARK    6  A    between atoms: C10_19  and  C11_20 
REMARK    7  A    between atoms: C11_20  and  C12_21 
REMARK    8  A    between atoms: C12_21  and  C13_22 
REMARK    9  A    between atoms: C13_22  and  C14_23 
REMARK   10  A    between atoms: C13_22  and  C21_30 
REMARK   11  A    between atoms: C14_23  and  C15_24 
REMARK   12  A    between atoms: C31_40  and  C32_41 
ROOT
HETATM    1  O2  MK1 B 902      22.948   6.103 -16.454  1.00 15.87    -0.221 OA
HETATM    2  C11 MK1 B 902      21.821   6.031 -15.635  1.00 21.68     0.174 C 
ENDROOT
BRANCH   2   3
HETATM    3  C10 MK1 B 902      20.920   6.844 -16.566  1.00 20.86     0.131 C 
BRANCH   3   4
HETATM    4  N3  MK1 B 902      21.335   8.222 -16.740  1.00 28.91    -0.357 N 
HETATM    5  C2  MK1 B 902      21.198   8.820 -18.114  1.00 27.27     0.192 C 
HETATM    6  C1  MK1 B 902      21.621  10.255 -17.866  1.00 30.30     0.282 C 
HETATM    7  N1  MK1 B 902      20.914  11.110 -16.875  1.00 28.25     0.146 N 
HETATM    8  C9  MK1 B 902      21.074  10.516 -15.624  1.00 27.47     0.274 C 
HETATM    9  C8  MK1 B 902      20.893   9.013 -15.564  1.00 26.24     0.133 C 
BRANCH   5  10
HETATM   10  C3  MK1 B 902      22.140   8.215 -19.118  1.00 28.85     0.273 C 
HETATM   11  O1  MK1 B 902      21.894   7.123 -19.617  1.00 29.59    -0.269 OA
HETATM   12  N2  MK1 B 902      23.226   8.903 -19.411  1.00 22.29    -0.240 NA
BRANCH  12  13
HETATM   13  C4  MK1 B 902      24.262   8.637 -20.357  1.00 23.47     0.088 C 
HETATM   14  C5  MK1 B 902      25.149   9.894 -20.417  1.00 27.66     0.025 C 
HETATM   15  C6  MK1 B 902      23.785   8.323 -21.620  1.00 21.71     0.025 C 
HETATM   16  C7  MK1 B 902      25.171   7.563 -19.944  1.00 22.75     0.025 C 
ENDBRANCH  12  13
ENDBRANCH   5  10
BRANCH   7  17
HETATM   17  C31 MK1 B 902      21.192  12.551 -16.912  1.00 36.25     0.278 C 
BRANCH  17  18
HETATM   18  C32 MK1 B 902      20.096  13.568 -17.252  1.00 42.75     0.030 A 
HETATM   19  C33 MK1 B 902      20.133  14.378 -18.396  1.00 47.41     0.097 A 
HETATM   20  N5  MK1 B 902      19.160  15.315 -18.783  1.00 51.38    -0.243 NA
HETATM   21  C34 MK1 B 902      18.111  15.346 -17.866  1.00 50.60     0.099 A 
HETATM   22  C35 MK1 B 902      18.012  14.568 -16.709  1.00 49.34     0.020 A 
HETATM   23  C36 MK1 B 902      19.021  13.660 -16.395  1.00 44.71     0.001 A 
ENDBRANCH  17  18
ENDBRANCH   7  17
ENDBRANCH   3   4
ENDBRANCH   2   3
BRANCH   2  24
HETATM   24  C12 MK1 B 902      22.231   6.480 -14.220  1.00 21.49     0.045 C 
BRANCH  24  25
HETATM   25  C13 MK1 B 902      23.707   6.713 -13.871  1.00 26.89     0.088 C 
BRANCH  25  26
HETATM   26  C14 MK1 B 902      24.079   8.207 -13.874  1.00 28.67     0.036 C 
BRANCH  26  27
HETATM   27  C15 MK1 B 902      25.003   8.559 -14.981  1.00 26.89    -0.022 A 
HETATM   28  C16 MK1 B 902      26.169   7.839 -15.246  1.00 29.22    -0.004 A 
HETATM   29  C17 MK1 B 902      27.022   8.226 -16.269  1.00 29.22    -0.000 A 
HETATM   30  C18 MK1 B 902      26.693   9.351 -17.029  1.00 30.97    -0.000 A 
HETATM   31  C19 MK1 B 902      25.520  10.071 -16.772  1.00 29.25    -0.000 A 
HETATM   32  C20 MK1 B 902      24.673   9.669 -15.740  1.00 29.96    -0.004 A 
ENDBRANCH  26  27
ENDBRANCH  25  26
BRANCH  25  33
HETATM   33  C21 MK1 B 902      24.077   6.116 -12.519  1.00 29.35     0.252 C 
HETATM   34  O3  MK1 B 902      24.810   6.736 -11.733  1.00 32.66    -0.271 OA
HETATM   35  N4  MK1 B 902      23.666   4.867 -12.316  1.00 31.19    -0.233 NA
BRANCH  35  36
HETATM   36  C22 MK1 B 902      24.207   4.053 -11.240  1.00 29.22     0.159 C 
HETATM   37  C23 MK1 B 902      24.471   2.624 -11.686  1.00 28.82     0.183 C 
HETATM   38  O4  MK1 B 902      23.506   2.222 -12.647  1.00 28.32    -0.221 OA
HETATM   39  C24 MK1 B 902      24.452   1.803 -10.417  1.00 32.05     0.061 C 
HETATM   40  C25 MK1 B 902      23.506   2.406  -9.408  1.00 31.29    -0.022 A 
HETATM   41  C26 MK1 B 902      22.823   1.992  -8.288  1.00 32.00    -0.004 A 
HETATM   42  C30 MK1 B 902      23.348   3.850  -9.964  1.00 31.86    -0.001 A 
HETATM   43  C27 MK1 B 902      21.985   2.910  -7.645  1.00 28.00    -0.000 A 
HETATM   44  C28 MK1 B 902      21.847   4.219  -8.130  1.00 29.01    -0.000 A 
HETATM   45  C29 MK1 B 902      22.513   4.662  -9.264  1.00 27.70    -0.003 A 
ENDBRANCH  35  36
ENDBRANCH  25  33
ENDBRANCH  24  25
ENDBRANCH   2  24
TORSDOF 12
ENDMDL
MODEL 7
REMARK VINA RESULT:    -5.845      4.859      9.358
REMARK INTER + INTRA:         -12.327
REMARK INTER:                  -9.458
REMARK INTRA:                  -2.869
REMARK UNBOUND:                -2.381
REMARK  12 active torsions:
REMARK  status: ('A' for Active; 'I' for Inactive)
REMARK    1  A    between atoms: N1_2  and  C31_40 
REMARK    2  A    between atoms: C2_4  and  C3_7 
REMARK       I    between atoms: N2_5  and  C3_7 
REMARK    3  A    between atoms: N2_5  and  C4_10 
REMARK    4  A    between atoms: N3_8  and  C10_19 
REMARK       I    between atoms: N4_11  and  C21_30 
REMARK    5  A    between atoms: N4_11  and  C22_31 
REMARK    6  A    between atoms: C10_19  and  C11_20 
REMARK    7  A    between atoms: C11_20  and  C12_21 
REMARK    8  A    between atoms: C12_21  and  C13_22 
REMARK    9  A    between atoms: C13_22  and  C14_23 
REMARK   10  A    between atoms: C13_22  and  C21_30 
REMARK   11  A    between atoms: C14_23  and  C15_24 
REMARK   12  A    between atoms: C31_40  and  C32_41 
ROOT
HETATM    1  O2  MK1 B 902      15.155  15.265 -21.721  1.00 15.87    -0.221 OA
HETATM    2  C11 MK1 B 902      16.295  14.602 -21.262  1.00 21.68     0.174 C 
ENDROOT
BRANCH   2   3
HETATM    3  C10 MK1 B 902      17.083  14.764 -22.562  1.00 20.86     0.131 C 
BRANCH   3   4
HETATM    4  N3  MK1 B 902      18.499  15.005 -22.371  1.00 28.91    -0.357 N 
HETATM    5  C2  MK1 B 902      18.903  15.931 -21.254  1.00 27.27     0.192 C 
HETATM    6  C1  MK1 B 902      20.415  15.841 -21.313  1.00 30.30     0.282 C 
HETATM    7  N1  MK1 B 902      21.120  14.540 -21.163  1.00 28.25     0.146 N 
HETATM    8  C9  MK1 B 902      20.716  13.725 -22.220  1.00 27.47     0.274 C 
HETATM    9  C8  MK1 B 902      19.237  13.729 -22.548  1.00 26.24     0.133 C 
BRANCH   5  10
HETATM   10  C3  MK1 B 902      18.502  17.360 -21.499  1.00 28.85     0.273 C 
HETATM   11  O1  MK1 B 902      18.413  17.790 -22.642  1.00 29.59    -0.269 OA
HETATM   12  N2  MK1 B 902      18.272  18.107 -20.437  1.00 22.29    -0.240 NA
BRANCH  12  13
HETATM   13  C4  MK1 B 902      17.817  19.456 -20.337  1.00 23.47     0.088 C 
HETATM   14  C5  MK1 B 902      17.257  19.638 -18.914  1.00 27.66     0.025 C 
HETATM   15  C6  MK1 B 902      16.854  19.783 -21.279  1.00 21.71     0.025 C 
HETATM   16  C7  MK1 B 902      18.893  20.447 -20.439  1.00 22.75     0.025 C 
ENDBRANCH  12  13
ENDBRANCH   5  10
BRANCH   7  17
HETATM   17  C31 MK1 B 902      22.570  14.583 -20.939  1.00 36.25     0.278 C 
BRANCH  17  18
HETATM   18  C32 MK1 B 902      23.214  13.873 -19.742  1.00 42.75     0.030 A 
HETATM   19  C33 MK1 B 902      23.625  12.532 -19.779  1.00 47.41     0.097 A 
HETATM   20  N5  MK1 B 902      24.237  11.821 -18.733  1.00 51.38    -0.243 NA
HETATM   21  C34 MK1 B 902      24.399  12.633 -17.612  1.00 50.60     0.099 A 
HETATM   22  C35 MK1 B 902      24.013  13.973 -17.509  1.00 49.34     0.020 A 
HETATM   23  C36 MK1 B 902      23.410  14.607 -18.593  1.00 44.71     0.001 A 
ENDBRANCH  17  18
ENDBRANCH   7  17
ENDBRANCH   3   4
ENDBRANCH   2   3
BRANCH   2  24
HETATM   24  C12 MK1 B 902      15.855  13.245 -20.682  1.00 21.49     0.045 C 
BRANCH  24  25
HETATM   25  C13 MK1 B 902      16.220  12.855 -19.242  1.00 26.89     0.088 C 
BRANCH  25  26
HETATM   26  C14 MK1 B 902      17.133  13.895 -18.569  1.00 28.67     0.036 C 
BRANCH  26  27
HETATM   27  C15 MK1 B 902      18.390  13.297 -18.054  1.00 26.89    -0.022 A 
HETATM   28  C16 MK1 B 902      18.884  13.569 -16.776  1.00 29.22    -0.004 A 
HETATM   29  C17 MK1 B 902      20.081  13.016 -16.349  1.00 29.22    -0.000 A 
HETATM   30  C18 MK1 B 902      20.787  12.184 -17.221  1.00 30.97    -0.000 A 
HETATM   31  C19 MK1 B 902      20.291  11.903 -18.500  1.00 29.25    -0.000 A 
HETATM   32  C20 MK1 B 902      19.085  12.466 -18.915  1.00 29.96    -0.004 A 
ENDBRANCH  26  27
ENDBRANCH  25  26
BRANCH  25  33
HETATM   33  C21 MK1 B 902      14.985  12.648 -18.374  1.00 29.35     0.252 C 
HETATM   34  O3  MK1 B 902      14.859  13.255 -17.300  1.00 32.66    -0.271 OA
HETATM   35  N4  MK1 B 902      14.147  11.702 -18.790  1.00 31.19    -0.233 NA
BRANCH  35  36
HETATM   36  C22 MK1 B 902      13.116  11.162 -17.920  1.00 29.22     0.159 C 
HETATM   37  C23 MK1 B 902      13.115   9.643 -17.915  1.00 28.82     0.183 C 
HETATM   38  O4  MK1 B 902      13.490   9.146 -19.191  1.00 28.32    -0.221 OA
HETATM   39  C24 MK1 B 902      11.719   9.248 -17.489  1.00 32.05     0.061 C 
HETATM   40  C25 MK1 B 902      10.713  10.275 -17.949  1.00 31.29    -0.022 A 
HETATM   41  C26 MK1 B 902       9.358  10.332 -18.173  1.00 32.00    -0.004 A 
HETATM   42  C30 MK1 B 902      11.634  11.494 -18.236  1.00 31.86    -0.001 A 
HETATM   43  C27 MK1 B 902       8.816  11.528 -18.657  1.00 28.00    -0.000 A 
HETATM   44  C28 MK1 B 902       9.635  12.639 -18.906  1.00 29.01    -0.000 A 
HETATM   45  C29 MK1 B 902      11.008  12.607 -18.702  1.00 27.70    -0.003 A 
ENDBRANCH  35  36
ENDBRANCH  25  33
ENDBRANCH  24  25
ENDBRANCH   2  24
TORSDOF 12
ENDMDL
MODEL 8
REMARK VINA RESULT:    -5.833      2.765      5.596
REMARK INTER + INTRA:         -12.306
REMARK INTER:                 -10.694
REMARK INTRA:                  -1.612
REMARK UNBOUND:                -2.381
REMARK  12 active torsions:
REMARK  status: ('A' for Active; 'I' for Inactive)
REMARK    1  A    between atoms: N1_2  and  C31_40 
REMARK    2  A    between atoms: C2_4  and  C3_7 
REMARK       I    between atoms: N2_5  and  C3_7 
REMARK    3  A    between atoms: N2_5  and  C4_10 
REMARK    4  A    between atoms: N3_8  and  C10_19 
REMARK       I    between atoms: N4_11  and  C21_30 
REMARK    5  A    between atoms: N4_11  and  C22_31 
REMARK    6  A    between atoms: C10_19  and  C11_20 
REMARK    7  A    between atoms: C11_20  and  C12_21 
REMARK    8  A    between atoms: C12_21  and  C13_22 
REMARK    9  A    between atoms: C13_22  and  C14_23 
REMARK   10  A    between atoms: C13_22  and  C21_30 
REMARK   11  A    between atoms: C14_23  and  C15_24 
REMARK   12  A    between atoms: C31_40  and  C32_41 
ROOT
HETATM    1  O2  MK1 B 902      20.804  13.427 -20.357  1.00 15.87    -0.221 OA
HETATM    2  C11 MK1 B 902      20.824  14.672 -19.726  1.00 21.68     0.174 C 
ENDROOT
BRANCH   2   3
HETATM    3  C10 MK1 B 902      20.945  14.108 -18.310  1.00 20.86     0.131 C 
BRANCH   3   4
HETATM    4  N3  MK1 B 902      21.561  12.797 -18.245  1.00 28.91    -0.357 N 
HETATM    5  C2  MK1 B 902      22.999  12.727 -17.805  1.00 27.27     0.192 C 
HETATM    6  C1  MK1 B 902      23.234  11.229 -17.765  1.00 30.30     0.282 C 
HETATM    7  N1  MK1 B 902      22.405  10.338 -16.910  1.00 28.25     0.146 N 
HETATM    8  C9  MK1 B 902      21.089  10.437 -17.360  1.00 27.47     0.274 C 
HETATM    9  C8  MK1 B 902      20.588  11.831 -17.676  1.00 26.24     0.133 C 
BRANCH   5  10
HETATM   10  C3  MK1 B 902      23.951  13.330 -18.801  1.00 28.85     0.273 C 
HETATM   11  O1  MK1 B 902      24.306  12.690 -19.783  1.00 29.59    -0.269 OA
HETATM   12  N2  MK1 B 902      24.382  14.551 -18.553  1.00 22.29    -0.240 NA
BRANCH  12  13
HETATM   13  C4  MK1 B 902      25.222  15.409 -19.324  1.00 23.47     0.088 C 
HETATM   14  C5  MK1 B 902      24.640  15.446 -20.750  1.00 27.66     0.025 C 
HETATM   15  C6  MK1 B 902      26.546  15.000 -19.355  1.00 21.71     0.025 C 
HETATM   16  C7  MK1 B 902      25.198  16.807 -18.882  1.00 22.75     0.025 C 
ENDBRANCH  12  13
ENDBRANCH   5  10
BRANCH   7  17
HETATM   17  C31 MK1 B 902      22.884   8.965 -16.707  1.00 36.25     0.278 C 
BRANCH  17  18
HETATM   18  C32 MK1 B 902      22.785   8.279 -15.340  1.00 42.75     0.030 A 
HETATM   19  C33 MK1 B 902      23.908   7.858 -14.613  1.00 47.41     0.097 A 
HETATM   20  N5  MK1 B 902      23.898   7.242 -13.350  1.00 51.38    -0.243 NA
HETATM   21  C34 MK1 B 902      22.593   7.094 -12.883  1.00 50.60     0.099 A 
HETATM   22  C35 MK1 B 902      21.433   7.490 -13.555  1.00 49.34     0.020 A 
HETATM   23  C36 MK1 B 902      21.528   8.095 -14.805  1.00 44.71     0.001 A 
ENDBRANCH  17  18
ENDBRANCH   7  17
ENDBRANCH   3   4
ENDBRANCH   2   3
BRANCH   2  24
HETATM   24  C12 MK1 B 902      19.616  15.482 -20.233  1.00 21.49     0.045 C 
BRANCH  24  25
HETATM   25  C13 MK1 B 902      18.479  15.871 -19.278  1.00 26.89     0.088 C 
BRANCH  25  26
HETATM   26  C14 MK1 B 902      17.481  16.847 -19.926  1.00 28.67     0.036 C 
BRANCH  26  27
HETATM   27  C15 MK1 B 902      17.835  18.268 -19.678  1.00 26.89    -0.022 A 
HETATM   28  C16 MK1 B 902      17.910  19.214 -20.702  1.00 29.22    -0.004 A 
HETATM   29  C17 MK1 B 902      18.280  20.523 -20.429  1.00 29.22    -0.000 A 
HETATM   30  C18 MK1 B 902      18.576  20.876 -19.110  1.00 30.97    -0.000 A 
HETATM   31  C19 MK1 B 902      18.493  19.932 -18.080  1.00 29.25    -0.000 A 
HETATM   32  C20 MK1 B 902      18.120  18.620 -18.370  1.00 29.96    -0.004 A 
ENDBRANCH  26  27
ENDBRANCH  25  26
BRANCH  25  33
HETATM   33  C21 MK1 B 902      17.717  14.653 -18.768  1.00 29.35     0.252 C 
HETATM   34  O3  MK1 B 902      17.450  14.534 -17.563  1.00 32.66    -0.271 OA
HETATM   35  N4  MK1 B 902      17.485  13.707 -19.674  1.00 31.19    -0.233 NA
BRANCH  35  36
HETATM   36  C22 MK1 B 902      17.075  12.367 -19.286  1.00 29.22     0.159 C 
HETATM   37  C23 MK1 B 902      17.582  11.314 -20.256  1.00 28.82     0.183 C 
HETATM   38  O4  MK1 B 902      17.622  11.837 -21.575  1.00 28.32    -0.221 OA
HETATM   39  C24 MK1 B 902      16.647  10.138 -20.091  1.00 32.05     0.061 C 
HETATM   40  C25 MK1 B 902      15.263  10.609 -19.718  1.00 31.29    -0.022 A 
HETATM   41  C26 MK1 B 902      13.981  10.114 -19.762  1.00 32.00    -0.004 A 
HETATM   42  C30 MK1 B 902      15.557  12.051 -19.217  1.00 31.86    -0.001 A 
HETATM   43  C27 MK1 B 902      12.936  10.939 -19.330  1.00 28.00    -0.000 A 
HETATM   44  C28 MK1 B 902      13.192  12.237 -18.863  1.00 29.01    -0.000 A 
HETATM   45  C29 MK1 B 902      14.474  12.768 -18.818  1.00 27.70    -0.003 A 
ENDBRANCH  35  36
ENDBRANCH  25  33
ENDBRANCH  24  25
ENDBRANCH   2  24
TORSDOF 12
ENDMDL
MODEL 9
REMARK VINA RESULT:    -5.762      3.686      5.531
REMARK INTER + INTRA:         -12.185
REMARK INTER:                  -8.832
REMARK INTRA:                  -3.352
REMARK UNBOUND:                -2.381
REMARK  12 active torsions:
REMARK  status: ('A' for Active; 'I' for Inactive)
REMARK    1  A    between atoms: N1_2  and  C31_40 
REMARK    2  A    between atoms: C2_4  and  C3_7 
REMARK       I    between atoms: N2_5  and  C3_7 
REMARK    3  A    between atoms: N2_5  and  C4_10 
REMARK    4  A    between atoms: N3_8  and  C10_19 
REMARK       I    between atoms: N4_11  and  C21_30 
REMARK    5  A    between atoms: N4_11  and  C22_31 
REMARK    6  A    between atoms: C10_19  and  C11_20 
REMARK    7  A    between atoms: C11_20  and  C12_21 
REMARK    8  A    between atoms: C12_21  and  C13_22 
REMARK    9  A    between atoms: C13_22  and  C14_23 
REMARK   10  A    between atoms: C13_22  and  C21_30 
REMARK   11  A    between atoms: C14_23  and  C15_24 
REMARK   12  A    between atoms: C31_40  and  C32_41 
ROOT
HETATM    1  O2  MK1 B 902      18.323  14.992 -16.318  1.00 15.87    -0.221 OA
HETATM    2  C11 MK1 B 902      18.523  13.707 -16.824  1.00 21.68     0.174 C 
ENDROOT
BRANCH   2   3
HETATM    3  C10 MK1 B 902      19.947  13.969 -17.313  1.00 20.86     0.131 C 
BRANCH   3   4
HETATM    4  N3  MK1 B 902      20.733  12.770 -17.524  1.00 28.91    -0.357 N 
HETATM    5  C2  MK1 B 902      22.112  12.935 -18.106  1.00 27.27     0.192 C 
HETATM    6  C1  MK1 B 902      22.631  11.512 -18.073  1.00 30.30     0.282 C 
HETATM    7  N1  MK1 B 902      22.714  10.747 -16.800  1.00 28.25     0.146 N 
HETATM    8  C9  MK1 B 902      21.416  10.618 -16.307  1.00 27.47     0.274 C 
HETATM    9  C8  MK1 B 902      20.546  11.857 -16.369  1.00 26.24     0.133 C 
BRANCH   5  10
HETATM   10  C3  MK1 B 902      22.097  13.403 -19.535  1.00 28.85     0.273 C 
HETATM   11  O1  MK1 B 902      22.098  14.600 -19.795  1.00 29.59    -0.269 OA
HETATM   12  N2  MK1 B 902      22.068  12.472 -20.468  1.00 22.29    -0.240 NA
BRANCH  12  13
HETATM   13  C4  MK1 B 902      22.116  12.587 -21.891  1.00 23.47     0.088 C 
HETATM   14  C5  MK1 B 902      22.220  11.158 -22.455  1.00 27.66     0.025 C 
HETATM   15  C6  MK1 B 902      23.173  13.362 -22.344  1.00 21.71     0.025 C 
HETATM   16  C7  MK1 B 902      20.885  13.126 -22.477  1.00 22.75     0.025 C 
ENDBRANCH  12  13
ENDBRANCH   5  10
BRANCH   7  17
HETATM   17  C31 MK1 B 902      23.493   9.503 -16.812  1.00 36.25     0.278 C 
BRANCH  17  18
HETATM   18  C32 MK1 B 902      23.485   8.568 -18.027  1.00 42.75     0.030 A 
HETATM   19  C33 MK1 B 902      22.400   7.738 -18.347  1.00 47.41     0.097 A 
HETATM   20  N5  MK1 B 902      22.312   6.872 -19.450  1.00 51.38    -0.243 NA
HETATM   21  C34 MK1 B 902      23.470   6.936 -20.222  1.00 50.60     0.099 A 
HETATM   22  C35 MK1 B 902      24.585   7.739 -19.961  1.00 49.34     0.020 A 
HETATM   23  C36 MK1 B 902      24.594   8.572 -18.845  1.00 44.71     0.001 A 
ENDBRANCH  17  18
ENDBRANCH   7  17
ENDBRANCH   3   4
ENDBRANCH   2   3
BRANCH   2  24
HETATM   24  C12 MK1 B 902      17.340  13.371 -17.750  1.00 21.49     0.045 C 
BRANCH  24  25
HETATM   25  C13 MK1 B 902      17.502  13.420 -19.276  1.00 26.89     0.088 C 
BRANCH  25  26
HETATM   26  C14 MK1 B 902      16.763  12.267 -19.979  1.00 28.67     0.036 C 
BRANCH  26  27
HETATM   27  C15 MK1 B 902      17.582  11.031 -20.056  1.00 26.89    -0.022 A 
HETATM   28  C16 MK1 B 902      18.956  11.022 -19.803  1.00 29.22    -0.004 A 
HETATM   29  C17 MK1 B 902      19.689   9.851 -19.923  1.00 29.22    -0.000 A 
HETATM   30  C18 MK1 B 902      19.028   8.680 -20.302  1.00 30.97    -0.000 A 
HETATM   31  C19 MK1 B 902      17.650   8.683 -20.548  1.00 29.25    -0.000 A 
HETATM   32  C20 MK1 B 902      16.926   9.869 -20.424  1.00 29.96    -0.004 A 
ENDBRANCH  26  27
ENDBRANCH  25  26
BRANCH  25  33
HETATM   33  C21 MK1 B 902      17.021  14.742 -19.861  1.00 29.35     0.252 C 
HETATM   34  O3  MK1 B 902      16.033  14.780 -20.609  1.00 32.66    -0.271 OA
HETATM   35  N4  MK1 B 902      17.799  15.792 -19.611  1.00 31.19    -0.233 NA
BRANCH  35  36
HETATM   36  C22 MK1 B 902      17.667  17.032 -20.357  1.00 29.22     0.159 C 
HETATM   37  C23 MK1 B 902      18.527  17.039 -21.609  1.00 28.82     0.183 C 
HETATM   38  O4  MK1 B 902      19.726  16.311 -21.386  1.00 28.32    -0.221 OA
HETATM   39  C24 MK1 B 902      18.748  18.499 -21.932  1.00 32.05     0.061 C 
HETATM   40  C25 MK1 B 902      18.764  19.326 -20.669  1.00 31.29    -0.022 A 
HETATM   41  C26 MK1 B 902      19.229  20.558 -20.274  1.00 32.00    -0.004 A 
HETATM   42  C30 MK1 B 902      18.078  18.358 -19.664  1.00 31.86    -0.001 A 
HETATM   43  C27 MK1 B 902      19.059  20.933 -18.936  1.00 28.00    -0.000 A 
HETATM   44  C28 MK1 B 902      18.428  20.073 -18.024  1.00 29.01    -0.000 A 
HETATM   45  C29 MK1 B 902      17.960  18.819 -18.391  1.00 27.70    -0.003 A 
ENDBRANCH  35  36
ENDBRANCH  25  33
ENDBRANCH  24  25
ENDBRANCH   2  24
TORSDOF 12
ENDMDL
