MODEL 1
REMARK VINA RESULT:    -6.855      0.000      0.000
REMARK INTER + INTRA:         -13.839
REMARK INTER:                 -11.665
REMARK INTRA:                  -2.174
REMARK UNBOUND:                -2.174
REMARK  12 active torsions:
REMARK  status: ('A' for Active; 'I' for Inactive)
REMARK    1  A    between atoms: N1_2  and  C31_40 
REMARK    2  A    between atoms: C2_4  and  C3_7 
REMARK       I    between atoms: N2_5  and  C3_7 
REMARK    3  A    between atoms: N2_5  and  C4_10 
REMARK    4  A    between atoms: N3_8  and  C10_19 
REMARK       I    between atoms: N4_11  and  C21_30 
REMARK    5  A    between atoms: N4_11  and  C22_31 
REMARK    6  A    between atoms: C10_19  and  C11_20 
REMARK    7  A    between atoms: C11_20  and  C12_21 
REMARK    8  A    between atoms: C12_21  and  C13_22 
REMARK    9  A    between atoms: C13_22  and  C14_23 
REMARK   10  A    between atoms: C13_22  and  C21_30 
REMARK   11  A    between atoms: C14_23  and  C15_24 
REMARK   12  A    between atoms: C31_40  and  C32_41 
ROOT
HETATM    1  O2  MK1 B 902      20.765   9.704 -17.973  1.00 15.87    -0.221 OA
HETATM    2  C11 MK1 B 902      21.136  11.024 -17.710  1.00 21.68     0.174 C 
ENDROOT
BRANCH   2   3
HETATM    3  C10 MK1 B 902      21.323  10.819 -16.206  1.00 20.86     0.131 C 
BRANCH   3   4
HETATM    4  N3  MK1 B 902      21.820   9.506 -15.844  1.00 28.91    -0.357 N 
HETATM    5  C2  MK1 B 902      23.297   9.369 -15.588  1.00 27.27     0.192 C 
HETATM    6  C1  MK1 B 902      23.399   7.921 -15.149  1.00 30.30     0.282 C 
HETATM    7  N1  MK1 B 902      22.638   7.414 -13.976  1.00 28.25     0.146 N 
HETATM    8  C9  MK1 B 902      21.282   7.559 -14.265  1.00 27.47     0.274 C 
HETATM    9  C8  MK1 B 902      20.866   8.868 -14.903  1.00 26.24     0.133 C 
BRANCH   5  10
HETATM   10  C3  MK1 B 902      24.130   9.548 -16.828  1.00 28.85     0.273 C 
HETATM   11  O1  MK1 B 902      24.030   8.758 -17.760  1.00 29.59    -0.269 OA
HETATM   12  N2  MK1 B 902      24.964  10.569 -16.847  1.00 22.29    -0.240 NA
BRANCH  12  13
HETATM   13  C4  MK1 B 902      25.824  11.040 -17.884  1.00 23.47     0.088 C 
HETATM   14  C5  MK1 B 902      26.700   9.850 -18.317  1.00 27.66     0.025 C 
HETATM   15  C6  MK1 B 902      26.620  12.107 -17.495  1.00 21.71     0.025 C 
HETATM   16  C7  MK1 B 902      25.112  11.437 -19.102  1.00 22.75     0.025 C 
ENDBRANCH  12  13
ENDBRANCH   5  10
BRANCH   7  17
HETATM   17  C31 MK1 B 902      23.017   6.097 -13.448  1.00 36.25     0.278 C 
BRANCH  17  18
HETATM   18  C32 MK1 B 902      22.887   5.768 -11.956  1.00 42.75     0.030 A 
HETATM   19  C33 MK1 B 902      22.558   6.727 -10.987  1.00 47.41     0.097 A 
HETATM   20  N5  MK1 B 902      22.403   6.497  -9.609  1.00 51.38    -0.243 NA
HETATM   21  C34 MK1 B 902      22.618   5.154  -9.304  1.00 50.60     0.099 A 
HETATM   22  C35 MK1 B 902      22.948   4.150 -10.219  1.00 49.34     0.020 A 
HETATM   23  C36 MK1 B 902      23.084   4.460 -11.570  1.00 44.71     0.001 A 
ENDBRANCH  17  18
ENDBRANCH   7  17
ENDBRANCH   3   4
ENDBRANCH   2   3
BRANCH   2  24
HETATM   24  C12 MK1 B 902      20.074  11.950 -18.330  1.00 21.49     0.045 C 
BRANCH  24  25
HETATM   25  C13 MK1 B 902      20.307  13.466 -18.408  1.00 26.89     0.088 C 
BRANCH  25  26
HETATM   26  C14 MK1 B 902      21.246  13.852 -19.564  1.00 28.67     0.036 C 
BRANCH  26  27
HETATM   27  C15 MK1 B 902      22.565  14.337 -19.086  1.00 26.89    -0.022 A 
HETATM   28  C16 MK1 B 902      22.981  14.201 -17.759  1.00 29.22    -0.004 A 
HETATM   29  C17 MK1 B 902      24.207  14.701 -17.348  1.00 29.22    -0.000 A 
HETATM   30  C18 MK1 B 902      25.019  15.345 -18.285  1.00 30.97    -0.000 A 
HETATM   31  C19 MK1 B 902      24.610  15.476 -19.617  1.00 29.25    -0.000 A 
HETATM   32  C20 MK1 B 902      23.374  14.967 -20.016  1.00 29.96    -0.004 A 
ENDBRANCH  26  27
ENDBRANCH  25  26
BRANCH  25  33
HETATM   33  C21 MK1 B 902      19.002  14.239 -18.554  1.00 29.35     0.252 C 
HETATM   34  O3  MK1 B 902      17.910  13.672 -18.393  1.00 32.66    -0.271 OA
HETATM   35  N4  MK1 B 902      19.127  15.493 -18.979  1.00 31.19    -0.233 NA
BRANCH  35  36
HETATM   36  C22 MK1 B 902      17.988  16.245 -19.479  1.00 29.22     0.159 C 
HETATM   37  C23 MK1 B 902      17.816  16.087 -20.980  1.00 28.82     0.183 C 
HETATM   38  O4  MK1 B 902      19.082  15.952 -21.609  1.00 28.32    -0.221 OA
HETATM   39  C24 MK1 B 902      17.039  17.306 -21.422  1.00 32.05     0.061 C 
HETATM   40  C25 MK1 B 902      17.364  18.489 -20.544  1.00 31.29    -0.022 A 
HETATM   41  C26 MK1 B 902      17.273  19.859 -20.621  1.00 32.00    -0.004 A 
HETATM   42  C30 MK1 B 902      17.988  17.787 -19.305  1.00 31.86    -0.001 A 
HETATM   43  C27 MK1 B 902      17.747  20.616 -19.544  1.00 28.00    -0.000 A 
HETATM   44  C28 MK1 B 902      18.300  19.993 -18.415  1.00 29.01    -0.000 A 
HETATM   45  C29 MK1 B 902      18.415  18.613 -18.314  1.00 27.70    -0.003 A 
ENDBRANCH  35  36
ENDBRANCH  25  33
ENDBRANCH  24  25
ENDBRANCH   2  24
TORSDOF 12
ENDMDL
MODEL 2
REMARK VINA RESULT:    -6.349      2.817      5.889
REMARK INTER + INTRA:         -12.977
REMARK INTER:                 -10.381
REMARK INTRA:                  -2.596
REMARK UNBOUND:                -2.174
REMARK  12 active torsions:
REMARK  status: ('A' for Active; 'I' for Inactive)
REMARK    1  A    between atoms: N1_2  and  C31_40 
REMARK    2  A    between atoms: C2_4  and  C3_7 
REMARK       I    between atoms: N2_5  and  C3_7 
REMARK    3  A    between atoms: N2_5  and  C4_10 
REMARK    4  A    between atoms: N3_8  and  C10_19 
REMARK       I    between atoms: N4_11  and  C21_30 
REMARK    5  A    between atoms: N4_11  and  C22_31 
REMARK    6  A    between atoms: C10_19  and  C11_20 
REMARK    7  A    between atoms: C11_20  and  C12_21 
REMARK    8  A    between atoms: C12_21  and  C13_22 
REMARK    9  A    between atoms: C13_22  and  C14_23 
REMARK   10  A    between atoms: C13_22  and  C21_30 
REMARK   11  A    between atoms: C14_23  and  C15_24 
REMARK   12  A    between atoms: C31_40  and  C32_41 
ROOT
HETATM    1  O2  MK1 B 902      22.423  15.604 -21.902  1.00 15.87    -0.221 OA
HETATM    2  C11 MK1 B 902      21.684  15.047 -20.856  1.00 21.68     0.174 C 
ENDROOT
BRANCH   2   3
HETATM    3  C10 MK1 B 902      22.316  13.659 -20.963  1.00 20.86     0.131 C 
BRANCH   3   4
HETATM    4  N3  MK1 B 902      22.320  12.911 -19.722  1.00 28.91    -0.357 N 
HETATM    5  C2  MK1 B 902      22.643  13.664 -18.459  1.00 27.27     0.192 C 
HETATM    6  C1  MK1 B 902      22.446  12.592 -17.405  1.00 30.30     0.282 C 
HETATM    7  N1  MK1 B 902      21.145  11.888 -17.250  1.00 28.25     0.146 N 
HETATM    8  C9  MK1 B 902      20.897  11.206 -18.440  1.00 27.47     0.274 C 
HETATM    9  C8  MK1 B 902      21.178  11.964 -19.722  1.00 26.24     0.133 C 
BRANCH   5  10
HETATM   10  C3  MK1 B 902      24.071  14.132 -18.399  1.00 28.85     0.273 C 
HETATM   11  O1  MK1 B 902      24.327  15.325 -18.297  1.00 29.59    -0.269 OA
HETATM   12  N2  MK1 B 902      25.008  13.207 -18.475  1.00 22.29    -0.240 NA
BRANCH  12  13
HETATM   13  C4  MK1 B 902      26.428  13.320 -18.381  1.00 23.47     0.088 C 
HETATM   14  C5  MK1 B 902      27.009  11.921 -18.661  1.00 27.66     0.025 C 
HETATM   15  C6  MK1 B 902      26.861  13.784 -17.149  1.00 21.71     0.025 C 
HETATM   16  C7  MK1 B 902      27.018  14.177 -19.413  1.00 22.75     0.025 C 
ENDBRANCH  12  13
ENDBRANCH   5  10
BRANCH   7  17
HETATM   17  C31 MK1 B 902      20.953  11.090 -16.033  1.00 36.25     0.278 C 
BRANCH  17  18
HETATM   18  C32 MK1 B 902      21.617   9.718 -15.864  1.00 42.75     0.030 A 
HETATM   19  C33 MK1 B 902      22.995   9.511 -16.022  1.00 47.41     0.097 A 
HETATM   20  N5  MK1 B 902      23.677   8.293 -15.865  1.00 51.38    -0.243 NA
HETATM   21  C34 MK1 B 902      22.792   7.273 -15.519  1.00 50.60     0.099 A 
HETATM   22  C35 MK1 B 902      21.411   7.410 -15.347  1.00 49.34     0.020 A 
HETATM   23  C36 MK1 B 902      20.811   8.655 -15.521  1.00 44.71     0.001 A 
ENDBRANCH  17  18
ENDBRANCH   7  17
ENDBRANCH   3   4
ENDBRANCH   2   3
BRANCH   2  24
HETATM   24  C12 MK1 B 902      20.195  15.341 -21.115  1.00 21.49     0.045 C 
BRANCH  24  25
HETATM   25  C13 MK1 B 902      19.273  15.776 -19.968  1.00 26.89     0.088 C 
BRANCH  25  26
HETATM   26  C14 MK1 B 902      18.143  16.705 -20.447  1.00 28.67     0.036 C 
BRANCH  26  27
HETATM   27  C15 MK1 B 902      18.294  18.091 -19.939  1.00 26.89    -0.022 A 
HETATM   28  C16 MK1 B 902      18.657  19.159 -20.762  1.00 29.22    -0.004 A 
HETATM   29  C17 MK1 B 902      18.822  20.432 -20.237  1.00 29.22    -0.000 A 
HETATM   30  C18 MK1 B 902      18.620  20.626 -18.869  1.00 30.97    -0.000 A 
HETATM   31  C19 MK1 B 902      18.249  19.559 -18.041  1.00 29.25    -0.000 A 
HETATM   32  C20 MK1 B 902      18.086  18.285 -18.584  1.00 29.96    -0.004 A 
ENDBRANCH  26  27
ENDBRANCH  25  26
BRANCH  25  33
HETATM   33  C21 MK1 B 902      18.657  14.583 -19.245  1.00 29.35     0.252 C 
HETATM   34  O3  MK1 B 902      18.981  14.315 -18.079  1.00 32.66    -0.271 OA
HETATM   35  N4  MK1 B 902      17.869  13.811 -19.989  1.00 31.19    -0.233 NA
BRANCH  35  36
HETATM   36  C22 MK1 B 902      17.479  12.480 -19.556  1.00 29.22     0.159 C 
HETATM   37  C23 MK1 B 902      17.599  11.459 -20.674  1.00 28.82     0.183 C 
HETATM   38  O4  MK1 B 902      17.300  12.062 -21.925  1.00 28.32    -0.221 OA
HETATM   39  C24 MK1 B 902      16.657  10.340 -20.293  1.00 32.05     0.061 C 
HETATM   40  C25 MK1 B 902      15.482  10.877 -19.514  1.00 31.29    -0.022 A 
HETATM   41  C26 MK1 B 902      14.205  10.472 -19.203  1.00 32.00    -0.004 A 
HETATM   42  C30 MK1 B 902      16.025  12.262 -19.060  1.00 31.86    -0.001 A 
HETATM   43  C27 MK1 B 902      13.400  11.335 -18.452  1.00 28.00    -0.000 A 
HETATM   44  C28 MK1 B 902      13.885  12.581 -18.026  1.00 29.01    -0.000 A 
HETATM   45  C29 MK1 B 902      15.164  13.022 -18.333  1.00 27.70    -0.003 A 
ENDBRANCH  35  36
ENDBRANCH  25  33
ENDBRANCH  24  25
ENDBRANCH   2  24
TORSDOF 12
ENDMDL
MODEL 3
REMARK VINA RESULT:    -6.248      2.405      4.484
REMARK INTER + INTRA:         -12.805
REMARK INTER:                 -10.717
REMARK INTRA:                  -2.089
REMARK UNBOUND:                -2.174
REMARK  12 active torsions:
REMARK  status: ('A' for Active; 'I' for Inactive)
REMARK    1  A    between atoms: N1_2  and  C31_40 
REMARK    2  A    between atoms: C2_4  and  C3_7 
REMARK       I    between atoms: N2_5  and  C3_7 
REMARK    3  A    between atoms: N2_5  and  C4_10 
REMARK    4  A    between atoms: N3_8  and  C10_19 
REMARK       I    between atoms: N4_11  and  C21_30 
REMARK    5  A    between atoms: N4_11  and  C22_31 
REMARK    6  A    between atoms: C10_19  and  C11_20 
REMARK    7  A    between atoms: C11_20  and  C12_21 
REMARK    8  A    between atoms: C12_21  and  C13_22 
REMARK    9  A    between atoms: C13_22  and  C14_23 
REMARK   10  A    between atoms: C13_22  and  C21_30 
REMARK   11  A    between atoms: C14_23  and  C15_24 
REMARK   12  A    between atoms: C31_40  and  C32_41 
ROOT
HETATM    1  O2  MK1 B 902      20.271  14.317 -17.549  1.00 15.87    -0.221 OA
HETATM    2  C11 MK1 B 902      19.577  13.115 -17.705  1.00 21.68     0.174 C 
ENDROOT
BRANCH   2   3
HETATM    3  C10 MK1 B 902      20.488  12.572 -18.806  1.00 20.86     0.131 C 
BRANCH   3   4
HETATM    4  N3  MK1 B 902      21.340  11.477 -18.385  1.00 28.91    -0.357 N 
HETATM    5  C2  MK1 B 902      22.617  11.826 -17.668  1.00 27.27     0.192 C 
HETATM    6  C1  MK1 B 902      23.153  10.453 -17.312  1.00 30.30     0.282 C 
HETATM    7  N1  MK1 B 902      22.361   9.501 -16.489  1.00 28.25     0.146 N 
HETATM    8  C9  MK1 B 902      21.196   9.209 -17.198  1.00 27.47     0.274 C 
HETATM    9  C8  MK1 B 902      20.493  10.380 -17.853  1.00 26.24     0.133 C 
BRANCH   5  10
HETATM   10  C3  MK1 B 902      23.621  12.514 -18.551  1.00 28.85     0.273 C 
HETATM   11  O1  MK1 B 902      24.210  11.887 -19.423  1.00 29.59    -0.269 OA
HETATM   12  N2  MK1 B 902      23.835  13.796 -18.328  1.00 22.29    -0.240 NA
BRANCH  12  13
HETATM   13  C4  MK1 B 902      24.659  14.730 -19.024  1.00 23.47     0.088 C 
HETATM   14  C5  MK1 B 902      23.968  15.025 -20.369  1.00 27.66     0.025 C 
HETATM   15  C6  MK1 B 902      25.950  14.272 -19.237  1.00 21.71     0.025 C 
HETATM   16  C7  MK1 B 902      24.753  16.036 -18.364  1.00 22.75     0.025 C 
ENDBRANCH  12  13
ENDBRANCH   5  10
BRANCH   7  17
HETATM   17  C31 MK1 B 902      23.064   8.330 -15.951  1.00 36.25     0.278 C 
BRANCH  17  18
HETATM   18  C32 MK1 B 902      22.841   7.857 -14.510  1.00 42.75     0.030 A 
HETATM   19  C33 MK1 B 902      21.571   7.589 -13.981  1.00 47.41     0.097 A 
HETATM   20  N5  MK1 B 902      21.290   7.136 -12.681  1.00 51.38    -0.243 NA
HETATM   21  C34 MK1 B 902      22.465   6.974 -11.949  1.00 50.60     0.099 A 
HETATM   22  C35 MK1 B 902      23.760   7.224 -12.414  1.00 49.34     0.020 A 
HETATM   23  C36 MK1 B 902      23.954   7.672 -13.718  1.00 44.71     0.001 A 
ENDBRANCH  17  18
ENDBRANCH   7  17
ENDBRANCH   3   4
ENDBRANCH   2   3
BRANCH   2  24
HETATM   24  C12 MK1 B 902      18.087  13.447 -17.901  1.00 21.49     0.045 C 
BRANCH  24  25
HETATM   25  C13 MK1 B 902      17.416  13.253 -19.269  1.00 26.89     0.088 C 
BRANCH  25  26
HETATM   26  C14 MK1 B 902      16.184  12.334 -19.188  1.00 28.67     0.036 C 
BRANCH  26  27
HETATM   27  C15 MK1 B 902      16.452  10.977 -19.726  1.00 26.89    -0.022 A 
HETATM   28  C16 MK1 B 902      17.688  10.610 -20.262  1.00 29.22    -0.004 A 
HETATM   29  C17 MK1 B 902      17.883   9.341 -20.786  1.00 29.22    -0.000 A 
HETATM   30  C18 MK1 B 902      16.819   8.436 -20.770  1.00 30.97    -0.000 A 
HETATM   31  C19 MK1 B 902      15.580   8.797 -20.226  1.00 29.25    -0.000 A 
HETATM   32  C20 MK1 B 902      15.400  10.077 -19.702  1.00 29.96    -0.004 A 
ENDBRANCH  26  27
ENDBRANCH  25  26
BRANCH  25  33
HETATM   33  C21 MK1 B 902      17.003  14.578 -19.898  1.00 29.35     0.252 C 
HETATM   34  O3  MK1 B 902      16.034  14.636 -20.670  1.00 32.66    -0.271 OA
HETATM   35  N4  MK1 B 902      17.817  15.602 -19.656  1.00 31.19    -0.233 NA
BRANCH  35  36
HETATM   36  C22 MK1 B 902      17.751  16.827 -20.435  1.00 29.22     0.159 C 
HETATM   37  C23 MK1 B 902      18.708  16.803 -21.615  1.00 28.82     0.183 C 
HETATM   38  O4  MK1 B 902      19.880  16.074 -21.284  1.00 28.32    -0.221 OA
HETATM   39  C24 MK1 B 902      18.963  18.255 -21.950  1.00 32.05     0.061 C 
HETATM   40  C25 MK1 B 902      18.886  19.107 -20.707  1.00 31.29    -0.022 A 
HETATM   41  C26 MK1 B 902      19.327  20.345 -20.302  1.00 32.00    -0.004 A 
HETATM   42  C30 MK1 B 902      18.116  18.165 -19.739  1.00 31.86    -0.001 A 
HETATM   43  C27 MK1 B 902      19.054  20.749 -18.990  1.00 28.00    -0.000 A 
HETATM   44  C28 MK1 B 902      18.348  19.913 -18.113  1.00 29.01    -0.000 A 
HETATM   45  C29 MK1 B 902      17.901  18.654 -18.489  1.00 27.70    -0.003 A 
ENDBRANCH  35  36
ENDBRANCH  25  33
ENDBRANCH  24  25
ENDBRANCH   2  24
TORSDOF 12
ENDMDL
MODEL 4
REMARK VINA RESULT:    -6.247     12.064     16.379
REMARK INTER + INTRA:         -12.804
REMARK INTER:                 -10.352
REMARK INTRA:                  -2.452
REMARK UNBOUND:                -2.174
REMARK  12 active torsions:
REMARK  status: ('A' for Active; 'I' for Inactive)
REMARK    1  A    between atoms: N1_2  and  C31_40 
REMARK    2  A    between atoms: C2_4  and  C3_7 
REMARK       I    between atoms: N2_5  and  C3_7 
REMARK    3  A    between atoms: N2_5  and  C4_10 
REMARK    4  A    between atoms: N3_8  and  C10_19 
REMARK       I    between atoms: N4_11  and  C21_30 
REMARK    5  A    between atoms: N4_11  and  C22_31 
REMARK    6  A    between atoms: C10_19  and  C11_20 
REMARK    7  A    between atoms: C11_20  and  C12_21 
REMARK    8  A    between atoms: C12_21  and  C13_22 
REMARK    9  A    between atoms: C13_22  and  C14_23 
REMARK   10  A    between atoms: C13_22  and  C21_30 
REMARK   11  A    between atoms: C14_23  and  C15_24 
REMARK   12  A    between atoms: C31_40  and  C32_41 
ROOT
HETATM    1  O2  MK1 B 902      27.372  15.579  -6.260  1.00 15.87    -0.221 OA
HETATM    2  C11 MK1 B 902      27.946  16.826  -6.510  1.00 21.68     0.174 C 
ENDROOT
BRANCH   2   3
HETATM    3  C10 MK1 B 902      29.356  16.285  -6.751  1.00 20.86     0.131 C 
BRANCH   3   4
HETATM    4  N3  MK1 B 902      29.880  16.562  -8.073  1.00 28.91    -0.357 N 
HETATM    5  C2  MK1 B 902      29.188  15.916  -9.244  1.00 27.27     0.192 C 
HETATM    6  C1  MK1 B 902      29.941  16.517 -10.415  1.00 30.30     0.282 C 
HETATM    7  N1  MK1 B 902      30.005  17.989 -10.621  1.00 28.25     0.146 N 
HETATM    8  C9  MK1 B 902      30.656  18.535  -9.515  1.00 27.47     0.274 C 
HETATM    9  C8  MK1 B 902      30.248  17.997  -8.159  1.00 26.24     0.133 C 
BRANCH   5  10
HETATM   10  C3  MK1 B 902      29.364  14.422  -9.283  1.00 28.85     0.273 C 
HETATM   11  O1  MK1 B 902      30.418  13.934  -9.670  1.00 29.59    -0.269 OA
HETATM   12  N2  MK1 B 902      28.338  13.689  -8.899  1.00 22.29    -0.240 NA
BRANCH  12  13
HETATM   13  C4  MK1 B 902      28.215  12.274  -8.759  1.00 23.47     0.088 C 
HETATM   14  C5  MK1 B 902      26.762  11.989  -8.332  1.00 27.66     0.025 C 
HETATM   15  C6  MK1 B 902      29.101  11.733  -7.841  1.00 21.71     0.025 C 
HETATM   16  C7  MK1 B 902      28.378  11.543 -10.019  1.00 22.75     0.025 C 
ENDBRANCH  12  13
ENDBRANCH   5  10
BRANCH   7  17
HETATM   17  C31 MK1 B 902      30.495  18.465 -11.920  1.00 36.25     0.278 C 
BRANCH  17  18
HETATM   18  C32 MK1 B 902      29.884  19.695 -12.602  1.00 42.75     0.030 A 
HETATM   19  C33 MK1 B 902      30.268  21.008 -12.296  1.00 47.41     0.097 A 
HETATM   20  N5  MK1 B 902      29.769  22.180 -12.890  1.00 51.38    -0.243 NA
HETATM   21  C34 MK1 B 902      28.813  21.876 -13.857  1.00 50.60     0.099 A 
HETATM   22  C35 MK1 B 902      28.385  20.592 -14.209  1.00 49.34     0.020 A 
HETATM   23  C36 MK1 B 902      28.930  19.480 -13.573  1.00 44.71     0.001 A 
ENDBRANCH  17  18
ENDBRANCH   7  17
ENDBRANCH   3   4
ENDBRANCH   2   3
BRANCH   2  24
HETATM   24  C12 MK1 B 902      27.568  17.765  -5.350  1.00 21.49     0.045 C 
BRANCH  24  25
HETATM   25  C13 MK1 B 902      28.497  17.927  -4.139  1.00 26.89     0.088 C 
BRANCH  25  26
HETATM   26  C14 MK1 B 902      28.917  19.391  -3.916  1.00 28.67     0.036 C 
BRANCH  26  27
HETATM   27  C15 MK1 B 902      30.078  19.782  -4.755  1.00 26.89    -0.022 A 
HETATM   28  C16 MK1 B 902      31.329  19.172  -4.639  1.00 29.22    -0.004 A 
HETATM   29  C17 MK1 B 902      32.396  19.594  -5.418  1.00 29.22    -0.000 A 
HETATM   30  C18 MK1 B 902      32.196  20.642  -6.320  1.00 30.97    -0.000 A 
HETATM   31  C19 MK1 B 902      30.942  21.251  -6.444  1.00 29.25    -0.000 A 
HETATM   32  C20 MK1 B 902      29.879  20.815  -5.655  1.00 29.96    -0.004 A 
ENDBRANCH  26  27
ENDBRANCH  25  26
BRANCH  25  33
HETATM   33  C21 MK1 B 902      27.866  17.395  -2.857  1.00 29.35     0.252 C 
HETATM   34  O3  MK1 B 902      28.014  17.997  -1.783  1.00 32.66    -0.271 OA
HETATM   35  N4  MK1 B 902      27.274  16.209  -2.964  1.00 31.19    -0.233 NA
BRANCH  35  36
HETATM   36  C22 MK1 B 902      26.923  15.425  -1.791  1.00 29.22     0.159 C 
HETATM   37  C23 MK1 B 902      27.928  14.318  -1.524  1.00 28.82     0.183 C 
HETATM   38  O4  MK1 B 902      28.449  13.821  -2.748  1.00 28.32    -0.221 OA
HETATM   39  C24 MK1 B 902      27.178  13.287  -0.713  1.00 32.05     0.061 C 
HETATM   40  C25 MK1 B 902      25.716  13.279  -1.087  1.00 31.29    -0.022 A 
HETATM   41  C26 MK1 B 902      24.651  12.415  -0.983  1.00 32.00    -0.004 A 
HETATM   42  C30 MK1 B 902      25.575  14.657  -1.793  1.00 31.86    -0.001 A 
HETATM   43  C27 MK1 B 902      23.422  12.811  -1.521  1.00 28.00    -0.000 A 
HETATM   44  C28 MK1 B 902      23.279  14.058  -2.148  1.00 29.01    -0.000 A 
HETATM   45  C29 MK1 B 902      24.339  14.946  -2.278  1.00 27.70    -0.003 A 
ENDBRANCH  35  36
ENDBRANCH  25  33
ENDBRANCH  24  25
ENDBRANCH   2  24
TORSDOF 12
ENDMDL
MODEL 5
REMARK VINA RESULT:    -6.241      2.132     11.286
REMARK INTER + INTRA:         -12.793
REMARK INTER:                 -11.036
REMARK INTRA:                  -1.757
REMARK UNBOUND:                -2.174
REMARK  12 active torsions:
REMARK  status: ('A' for Active; 'I' for Inactive)
REMARK    1  A    between atoms: N1_2  and  C31_40 
REMARK    2  A    between atoms: C2_4  and  C3_7 
REMARK       I    between atoms: N2_5  and  C3_7 
REMARK    3  A    between atoms: N2_5  and  C4_10 
REMARK    4  A    between atoms: N3_8  and  C10_19 
REMARK       I    between atoms: N4_11  and  C21_30 
REMARK    5  A    between atoms: N4_11  and  C22_31 
REMARK    6  A    between atoms: C10_19  and  C11_20 
REMARK    7  A    between atoms: C11_20  and  C12_21 
REMARK    8  A    between atoms: C12_21  and  C13_22 
REMARK    9  A    between atoms: C13_22  and  C14_23 
REMARK   10  A    between atoms: C13_22  and  C21_30 
REMARK   11  A    between atoms: C14_23  and  C15_24 
REMARK   12  A    between atoms: C31_40  and  C32_41 
ROOT
HETATM    1  O2  MK1 B 902      21.240   9.468 -17.619  1.00 15.87    -0.221 OA
HETATM    2  C11 MK1 B 902      21.147  10.417 -16.599  1.00 21.68     0.174 C 
ENDROOT
BRANCH   2   3
HETATM    3  C10 MK1 B 902      21.928  11.499 -17.345  1.00 20.86     0.131 C 
BRANCH   3   4
HETATM    4  N3  MK1 B 902      21.251  12.779 -17.414  1.00 28.91    -0.357 N 
HETATM    5  C2  MK1 B 902      21.191  13.463 -18.753  1.00 27.27     0.192 C 
HETATM    6  C1  MK1 B 902      20.339  14.677 -18.440  1.00 30.30     0.282 C 
HETATM    7  N1  MK1 B 902      18.965  14.537 -17.888  1.00 28.25     0.146 N 
HETATM    8  C9  MK1 B 902      19.076  13.904 -16.650  1.00 27.47     0.274 C 
HETATM    9  C8  MK1 B 902      20.024  12.724 -16.580  1.00 26.24     0.133 C 
BRANCH   5  10
HETATM   10  C3  MK1 B 902      22.535  13.938 -19.234  1.00 28.85     0.273 C 
HETATM   11  O1  MK1 B 902      22.690  14.278 -20.400  1.00 29.59    -0.269 OA
HETATM   12  N2  MK1 B 902      23.515  13.952 -18.352  1.00 22.29    -0.240 NA
BRANCH  12  13
HETATM   13  C4  MK1 B 902      24.863  14.405 -18.476  1.00 23.47     0.088 C 
HETATM   14  C5  MK1 B 902      25.596  13.993 -17.185  1.00 27.66     0.025 C 
HETATM   15  C6  MK1 B 902      24.968  15.773 -18.673  1.00 21.71     0.025 C 
HETATM   16  C7  MK1 B 902      25.608  13.741 -19.550  1.00 22.75     0.025 C 
ENDBRANCH  12  13
ENDBRANCH   5  10
BRANCH   7  17
HETATM   17  C31 MK1 B 902      18.113  15.732 -17.893  1.00 36.25     0.278 C 
BRANCH  17  18
HETATM   18  C32 MK1 B 902      18.220  16.785 -19.003  1.00 42.75     0.030 A 
HETATM   19  C33 MK1 B 902      18.265  16.457 -20.365  1.00 47.41     0.097 A 
HETATM   20  N5  MK1 B 902      18.342  17.362 -21.437  1.00 51.38    -0.243 NA
HETATM   21  C34 MK1 B 902      18.368  18.676 -20.972  1.00 50.60     0.099 A 
HETATM   22  C35 MK1 B 902      18.327  19.071 -19.632  1.00 49.34     0.020 A 
HETATM   23  C36 MK1 B 902      18.250  18.110 -18.627  1.00 44.71     0.001 A 
ENDBRANCH  17  18
ENDBRANCH   7  17
ENDBRANCH   3   4
ENDBRANCH   2   3
BRANCH   2  24
HETATM   24  C12 MK1 B 902      21.619   9.757 -15.291  1.00 21.49     0.045 C 
BRANCH  24  25
HETATM   25  C13 MK1 B 902      22.700   8.667 -15.311  1.00 26.89     0.088 C 
BRANCH  25  26
HETATM   26  C14 MK1 B 902      24.000   9.121 -14.623  1.00 28.67     0.036 C 
BRANCH  26  27
HETATM   27  C15 MK1 B 902      25.153   9.158 -15.556  1.00 26.89    -0.022 A 
HETATM   28  C16 MK1 B 902      26.104   8.137 -15.619  1.00 29.22    -0.004 A 
HETATM   29  C17 MK1 B 902      27.185   8.230 -16.481  1.00 29.22    -0.000 A 
HETATM   30  C18 MK1 B 902      27.308   9.366 -17.286  1.00 30.97    -0.000 A 
HETATM   31  C19 MK1 B 902      26.353  10.388 -17.232  1.00 29.25    -0.000 A 
HETATM   32  C20 MK1 B 902      25.271  10.279 -16.360  1.00 29.96    -0.004 A 
ENDBRANCH  26  27
ENDBRANCH  25  26
BRANCH  25  33
HETATM   33  C21 MK1 B 902      22.223   7.375 -14.658  1.00 29.35     0.252 C 
HETATM   34  O3  MK1 B 902      21.193   6.809 -15.055  1.00 32.66    -0.271 OA
HETATM   35  N4  MK1 B 902      22.909   6.991 -13.585  1.00 31.19    -0.233 NA
BRANCH  35  36
HETATM   36  C22 MK1 B 902      22.392   5.988 -12.670  1.00 29.22     0.159 C 
HETATM   37  C23 MK1 B 902      22.560   6.401 -11.218  1.00 28.82     0.183 C 
HETATM   38  O4  MK1 B 902      23.750   7.160 -11.056  1.00 28.32    -0.221 OA
HETATM   39  C24 MK1 B 902      22.545   5.109 -10.432  1.00 32.05     0.061 C 
HETATM   40  C25 MK1 B 902      23.123   3.983 -11.253  1.00 31.29    -0.022 A 
HETATM   41  C26 MK1 B 902      23.672   2.743 -11.023  1.00 32.00    -0.004 A 
HETATM   42  C30 MK1 B 902      23.030   4.573 -12.688  1.00 31.86    -0.001 A 
HETATM   43  C27 MK1 B 902      24.137   2.010 -12.120  1.00 28.00    -0.000 A 
HETATM   44  C28 MK1 B 902      24.046   2.527 -13.421  1.00 29.01    -0.000 A 
HETATM   45  C29 MK1 B 902      23.508   3.780 -13.683  1.00 27.70    -0.003 A 
ENDBRANCH  35  36
ENDBRANCH  25  33
ENDBRANCH  24  25
ENDBRANCH   2  24
TORSDOF 12
ENDMDL
MODEL 6
REMARK VINA RESULT:    -6.156      2.207      4.248
REMARK INTER + INTRA:         -12.648
REMARK INTER:                 -10.984
REMARK INTRA:                  -1.665
REMARK UNBOUND:                -2.174
REMARK  12 active torsions:
REMARK  status: ('A' for Active; 'I' for Inactive)
REMARK    1  A    between atoms: N1_2  and  C31_40 
REMARK    2  A    between atoms: C2_4  and  C3_7 
REMARK       I    between atoms: N2_5  and  C3_7 
REMARK    3  A    between atoms: N2_5  and  C4_10 
REMARK    4  A    between atoms: N3_8  and  C10_19 
REMARK       I    between atoms: N4_11  and  C21_30 
REMARK    5  A    between atoms: N4_11  and  C22_31 
REMARK    6  A    between atoms: C10_19  and  C11_20 
REMARK    7  A    between atoms: C11_20  and  C12_21 
REMARK    8  A    between atoms: C12_21  and  C13_22 
REMARK    9  A    between atoms: C13_22  and  C14_23 
REMARK   10  A    between atoms: C13_22  and  C21_30 
REMARK   11  A    between atoms: C14_23  and  C15_24 
REMARK   12  A    between atoms: C31_40  and  C32_41 
ROOT
HETATM    1  O2  MK1 B 902      20.616  10.313 -17.802  1.00 15.87    -0.221 OA
HETATM    2  C11 MK1 B 902      21.250  11.029 -16.786  1.00 21.68     0.174 C 
ENDROOT
BRANCH   2   3
HETATM    3  C10 MK1 B 902      21.394   9.835 -15.842  1.00 20.86     0.131 C 
BRANCH   3   4
HETATM    4  N3  MK1 B 902      22.762   9.405 -15.632  1.00 28.91    -0.357 N 
HETATM    5  C2  MK1 B 902      23.053   7.932 -15.742  1.00 27.27     0.192 C 
HETATM    6  C1  MK1 B 902      24.559   7.904 -15.569  1.00 30.30     0.282 C 
HETATM    7  N1  MK1 B 902      25.458   8.661 -16.481  1.00 28.25     0.146 N 
HETATM    8  C9  MK1 B 902      25.152  10.013 -16.338  1.00 27.47     0.274 C 
HETATM    9  C8  MK1 B 902      23.680  10.370 -16.289  1.00 26.24     0.133 C 
BRANCH   5  10
HETATM   10  C3  MK1 B 902      22.432   7.124 -14.636  1.00 28.85     0.273 C 
HETATM   11  O1  MK1 B 902      21.540   6.322 -14.882  1.00 29.59    -0.269 OA
HETATM   12  N2  MK1 B 902      22.884   7.335 -13.415  1.00 22.29    -0.240 NA
BRANCH  12  13
HETATM   13  C4  MK1 B 902      22.555   6.691 -12.184  1.00 23.47     0.088 C 
HETATM   14  C5  MK1 B 902      21.177   7.226 -11.751  1.00 27.66     0.025 C 
HETATM   15  C6  MK1 B 902      23.491   6.905 -11.185  1.00 21.71     0.025 C 
HETATM   16  C7  MK1 B 902      22.363   5.243 -12.313  1.00 22.75     0.025 C 
ENDBRANCH  12  13
ENDBRANCH   5  10
BRANCH   7  17
HETATM   17  C31 MK1 B 902      26.890   8.345 -16.427  1.00 36.25     0.278 C 
BRANCH  17  18
HETATM   18  C32 MK1 B 902      27.387   6.950 -16.032  1.00 42.75     0.030 A 
HETATM   19  C33 MK1 B 902      27.365   5.854 -16.907  1.00 47.41     0.097 A 
HETATM   20  N5  MK1 B 902      27.818   4.555 -16.625  1.00 51.38    -0.243 NA
HETATM   21  C34 MK1 B 902      28.315   4.476 -15.325  1.00 50.60     0.099 A 
HETATM   22  C35 MK1 B 902      28.366   5.526 -14.403  1.00 49.34     0.020 A 
HETATM   23  C36 MK1 B 902      27.895   6.787 -14.762  1.00 44.71     0.001 A 
ENDBRANCH  17  18
ENDBRANCH   7  17
ENDBRANCH   3   4
ENDBRANCH   2   3
BRANCH   2  24
HETATM   24  C12 MK1 B 902      20.400  12.275 -16.480  1.00 21.49     0.045 C 
BRANCH  24  25
HETATM   25  C13 MK1 B 902      20.534  13.543 -17.335  1.00 26.89     0.088 C 
BRANCH  25  26
HETATM   26  C14 MK1 B 902      21.369  13.304 -18.606  1.00 28.67     0.036 C 
BRANCH  26  27
HETATM   27  C15 MK1 B 902      22.647  14.059 -18.594  1.00 26.89    -0.022 A 
HETATM   28  C16 MK1 B 902      23.465  14.138 -17.465  1.00 29.22    -0.004 A 
HETATM   29  C17 MK1 B 902      24.633  14.884 -17.489  1.00 29.22    -0.000 A 
HETATM   30  C18 MK1 B 902      24.977  15.558 -18.663  1.00 30.97    -0.000 A 
HETATM   31  C19 MK1 B 902      24.164  15.474 -19.800  1.00 29.25    -0.000 A 
HETATM   32  C20 MK1 B 902      22.993  14.719 -19.761  1.00 29.96    -0.004 A 
ENDBRANCH  26  27
ENDBRANCH  25  26
BRANCH  25  33
HETATM   33  C21 MK1 B 902      19.177  14.109 -17.736  1.00 29.35     0.252 C 
HETATM   34  O3  MK1 B 902      18.151  13.419 -17.639  1.00 32.66    -0.271 OA
HETATM   35  N4  MK1 B 902      19.206  15.315 -18.298  1.00 31.19    -0.233 NA
BRANCH  35  36
HETATM   36  C22 MK1 B 902      18.064  15.844 -19.025  1.00 29.22     0.159 C 
HETATM   37  C23 MK1 B 902      18.047  15.382 -20.472  1.00 28.82     0.183 C 
HETATM   38  O4  MK1 B 902      19.373  15.249 -20.962  1.00 28.32    -0.221 OA
HETATM   39  C24 MK1 B 902      17.221  16.413 -21.208  1.00 32.05     0.061 C 
HETATM   40  C25 MK1 B 902      17.369  17.769 -20.565  1.00 31.29    -0.022 A 
HETATM   41  C26 MK1 B 902      17.179  19.083 -20.922  1.00 32.00    -0.004 A 
HETATM   42  C30 MK1 B 902      17.927  17.383 -19.165  1.00 31.86    -0.001 A 
HETATM   43  C27 MK1 B 902      17.489  20.076 -19.986  1.00 28.00    -0.000 A 
HETATM   44  C28 MK1 B 902      17.980  19.739 -18.716  1.00 29.01    -0.000 A 
HETATM   45  C29 MK1 B 902      18.193  18.422 -18.331  1.00 27.70    -0.003 A 
ENDBRANCH  35  36
ENDBRANCH  25  33
ENDBRANCH  24  25
ENDBRANCH   2  24
TORSDOF 12
ENDMDL
MODEL 7
REMARK VINA RESULT:    -6.110      4.022      8.551
REMARK INTER + INTRA:         -12.570
REMARK INTER:                  -9.671
REMARK INTRA:                  -2.899
REMARK UNBOUND:                -2.174
REMARK  12 active torsions:
REMARK  status: ('A' for Active; 'I' for Inactive)
REMARK    1  A    between atoms: N1_2  and  C31_40 
REMARK    2  A    between atoms: C2_4  and  C3_7 
REMARK       I    between atoms: N2_5  and  C3_7 
REMARK    3  A    between atoms: N2_5  and  C4_10 
REMARK    4  A    between atoms: N3_8  and  C10_19 
REMARK       I    between atoms: N4_11  and  C21_30 
REMARK    5  A    between atoms: N4_11  and  C22_31 
REMARK    6  A    between atoms: C10_19  and  C11_20 
REMARK    7  A    between atoms: C11_20  and  C12_21 
REMARK    8  A    between atoms: C12_21  and  C13_22 
REMARK    9  A    between atoms: C13_22  and  C14_23 
REMARK   10  A    between atoms: C13_22  and  C21_30 
REMARK   11  A    between atoms: C14_23  and  C15_24 
REMARK   12  A    between atoms: C31_40  and  C32_41 
ROOT
HETATM    1  O2  MK1 B 902      22.071  12.198 -21.323  1.00 15.87    -0.221 OA
HETATM    2  C11 MK1 B 902      21.715  13.543 -21.436  1.00 21.68     0.174 C 
ENDROOT
BRANCH   2   3
HETATM    3  C10 MK1 B 902      22.961  13.951 -22.224  1.00 20.86     0.131 C 
BRANCH   3   4
HETATM    4  N3  MK1 B 902      23.536  15.216 -21.812  1.00 28.91    -0.357 N 
HETATM    5  C2  MK1 B 902      25.017  15.252 -21.545  1.00 27.27     0.192 C 
HETATM    6  C1  MK1 B 902      25.240  16.723 -21.253  1.00 30.30     0.282 C 
HETATM    7  N1  MK1 B 902      24.884  17.772 -22.247  1.00 28.25     0.146 N 
HETATM    8  C9  MK1 B 902      23.507  17.699 -22.454  1.00 27.47     0.274 C 
HETATM    9  C8  MK1 B 902      22.922  16.310 -22.606  1.00 26.24     0.133 C 
BRANCH   5  10
HETATM   10  C3  MK1 B 902      25.418  14.461 -20.330  1.00 28.85     0.273 C 
HETATM   11  O1  MK1 B 902      26.450  13.801 -20.335  1.00 29.59    -0.269 OA
HETATM   12  N2  MK1 B 902      24.606  14.507 -19.292  1.00 22.29    -0.240 NA
BRANCH  12  13
HETATM   13  C4  MK1 B 902      24.736  13.933 -17.992  1.00 23.47     0.088 C 
HETATM   14  C5  MK1 B 902      24.306  12.458 -18.106  1.00 27.66     0.025 C 
HETATM   15  C6  MK1 B 902      23.982  14.581 -17.027  1.00 21.71     0.025 C 
HETATM   16  C7  MK1 B 902      26.120  13.876 -17.511  1.00 22.75     0.025 C 
ENDBRANCH  12  13
ENDBRANCH   5  10
BRANCH   7  17
HETATM   17  C31 MK1 B 902      25.399  19.126 -22.008  1.00 36.25     0.278 C 
BRANCH  17  18
HETATM   18  C32 MK1 B 902      26.212  19.461 -20.752  1.00 42.75     0.030 A 
HETATM   19  C33 MK1 B 902      27.599  19.267 -20.665  1.00 47.41     0.097 A 
HETATM   20  N5  MK1 B 902      28.412  19.567 -19.560  1.00 51.38    -0.243 NA
HETATM   21  C34 MK1 B 902      27.655  20.104 -18.520  1.00 50.60     0.099 A 
HETATM   22  C35 MK1 B 902      26.275  20.323 -18.541  1.00 49.34     0.020 A 
HETATM   23  C36 MK1 B 902      25.538  19.998 -19.678  1.00 44.71     0.001 A 
ENDBRANCH  17  18
ENDBRANCH   7  17
ENDBRANCH   3   4
ENDBRANCH   2   3
BRANCH   2  24
HETATM   24  C12 MK1 B 902      21.373  14.065 -20.029  1.00 21.49     0.045 C 
BRANCH  24  25
HETATM   25  C13 MK1 B 902      20.170  13.503 -19.258  1.00 26.89     0.088 C 
BRANCH  25  26
HETATM   26  C14 MK1 B 902      20.469  13.330 -17.758  1.00 28.67     0.036 C 
BRANCH  26  27
HETATM   27  C15 MK1 B 902      20.739  11.916 -17.393  1.00 26.89    -0.022 A 
HETATM   28  C16 MK1 B 902      20.736  10.883 -18.333  1.00 29.22    -0.004 A 
HETATM   29  C17 MK1 B 902      20.958   9.571 -17.941  1.00 29.22    -0.000 A 
HETATM   30  C18 MK1 B 902      21.184   9.302 -16.589  1.00 30.97    -0.000 A 
HETATM   31  C19 MK1 B 902      21.196  10.336 -15.646  1.00 29.25    -0.000 A 
HETATM   32  C20 MK1 B 902      20.971  11.650 -16.055  1.00 29.96    -0.004 A 
ENDBRANCH  26  27
ENDBRANCH  25  26
BRANCH  25  33
HETATM   33  C21 MK1 B 902      18.930  14.376 -19.415  1.00 29.35     0.252 C 
HETATM   34  O3  MK1 B 902      17.802  13.864 -19.479  1.00 32.66    -0.271 OA
HETATM   35  N4  MK1 B 902      19.166  15.672 -19.600  1.00 31.19    -0.233 NA
BRANCH  35  36
HETATM   36  C22 MK1 B 902      18.133  16.571 -20.089  1.00 29.22     0.159 C 
HETATM   37  C23 MK1 B 902      18.160  16.698 -21.602  1.00 28.82     0.183 C 
HETATM   38  O4  MK1 B 902      19.493  16.602 -22.081  1.00 28.32    -0.221 OA
HETATM   39  C24 MK1 B 902      17.495  18.022 -21.901  1.00 32.05     0.061 C 
HETATM   40  C25 MK1 B 902      17.742  19.005 -20.784  1.00 31.29    -0.022 A 
HETATM   41  C26 MK1 B 902      17.714  20.369 -20.612  1.00 32.00    -0.004 A 
HETATM   42  C30 MK1 B 902      18.167  18.052 -19.630  1.00 31.86    -0.001 A 
HETATM   43  C27 MK1 B 902      18.066  20.887 -19.361  1.00 28.00    -0.000 A 
HETATM   44  C28 MK1 B 902      18.437  20.037 -18.309  1.00 29.01    -0.000 A 
HETATM   45  C29 MK1 B 902      18.487  18.657 -18.456  1.00 27.70    -0.003 A 
ENDBRANCH  35  36
ENDBRANCH  25  33
ENDBRANCH  24  25
ENDBRANCH   2  24
TORSDOF 12
ENDMDL
MODEL 8
REMARK VINA RESULT:    -6.084      2.651     10.460
REMARK INTER + INTRA:         -12.526
REMARK INTER:                 -10.078
REMARK INTRA:                  -2.448
REMARK UNBOUND:                -2.174
REMARK  12 active torsions:
REMARK  status: ('A' for Active; 'I' for Inactive)
REMARK    1  A    between atoms: N1_2  and  C31_40 
REMARK    2  A    between atoms: C2_4  and  C3_7 
REMARK       I    between atoms: N2_5  and  C3_7 
REMARK    3  A    between atoms: N2_5  and  C4_10 
REMARK    4  A    between atoms: N3_8  and  C10_19 
REMARK       I    between atoms: N4_11  and  C21_30 
REMARK    5  A    between atoms: N4_11  and  C22_31 
REMARK    6  A    between atoms: C10_19  and  C11_20 
REMARK    7  A    between atoms: C11_20  and  C12_21 
REMARK    8  A    between atoms: C12_21  and  C13_22 
REMARK    9  A    between atoms: C13_22  and  C14_23 
REMARK   10  A    between atoms: C13_22  and  C21_30 
REMARK   11  A    between atoms: C14_23  and  C15_24 
REMARK   12  A    between atoms: C31_40  and  C32_41 
ROOT
HETATM    1  O2  MK1 B 902      19.978  10.512 -21.219  1.00 15.87    -0.221 OA
HETATM    2  C11 MK1 B 902      19.592  11.673 -20.546  1.00 21.68     0.174 C 
ENDROOT
BRANCH   2   3
HETATM    3  C10 MK1 B 902      20.611  12.579 -21.239  1.00 20.86     0.131 C 
BRANCH   3   4
HETATM    4  N3  MK1 B 902      20.276  13.989 -21.198  1.00 28.91    -0.357 N 
HETATM    5  C2  MK1 B 902      21.202  14.944 -21.901  1.00 27.27     0.192 C 
HETATM    6  C1  MK1 B 902      20.475  16.262 -21.725  1.00 30.30     0.282 C 
HETATM    7  N1  MK1 B 902      19.086  16.453 -22.225  1.00 28.25     0.146 N 
HETATM    8  C9  MK1 B 902      18.271  15.551 -21.541  1.00 27.47     0.274 C 
HETATM    9  C8  MK1 B 902      18.811  14.145 -21.379  1.00 26.24     0.133 C 
BRANCH   5  10
HETATM   10  C3  MK1 B 902      22.549  15.054 -21.241  1.00 28.85     0.273 C 
HETATM   11  O1  MK1 B 902      23.488  15.572 -21.833  1.00 29.59    -0.269 OA
HETATM   12  N2  MK1 B 902      22.661  14.560 -20.024  1.00 22.29    -0.240 NA
BRANCH  12  13
HETATM   13  C4  MK1 B 902      23.766  14.570 -19.120  1.00 23.47     0.088 C 
HETATM   14  C5  MK1 B 902      24.771  13.519 -19.627  1.00 27.66     0.025 C 
HETATM   15  C6  MK1 B 902      23.406  14.299 -17.809  1.00 21.71     0.025 C 
HETATM   16  C7  MK1 B 902      24.516  15.829 -19.125  1.00 22.75     0.025 C 
ENDBRANCH  12  13
ENDBRANCH   5  10
BRANCH   7  17
HETATM   17  C31 MK1 B 902      18.574  17.827 -22.278  1.00 36.25     0.278 C 
BRANCH  17  18
HETATM   18  C32 MK1 B 902      18.466  18.689 -21.014  1.00 42.75     0.030 A 
HETATM   19  C33 MK1 B 902      17.608  18.380 -19.949  1.00 47.41     0.097 A 
HETATM   20  N5  MK1 B 902      17.469  19.108 -18.755  1.00 51.38    -0.243 NA
HETATM   21  C34 MK1 B 902      18.318  20.214 -18.749  1.00 50.60     0.099 A 
HETATM   22  C35 MK1 B 902      19.195  20.578 -19.774  1.00 49.34     0.020 A 
HETATM   23  C36 MK1 B 902      19.274  19.802 -20.928  1.00 44.71     0.001 A 
ENDBRANCH  17  18
ENDBRANCH   7  17
ENDBRANCH   3   4
ENDBRANCH   2   3
BRANCH   2  24
HETATM   24  C12 MK1 B 902      19.590  11.370 -19.037  1.00 21.49     0.045 C 
BRANCH  24  25
HETATM   25  C13 MK1 B 902      20.822  11.681 -18.175  1.00 26.89     0.088 C 
BRANCH  25  26
HETATM   26  C14 MK1 B 902      20.448  12.362 -16.847  1.00 28.67     0.036 C 
BRANCH  26  27
HETATM   27  C15 MK1 B 902      19.480  13.472 -17.031  1.00 26.89    -0.022 A 
HETATM   28  C16 MK1 B 902      19.737  14.564 -17.863  1.00 29.22    -0.004 A 
HETATM   29  C17 MK1 B 902      18.819  15.597 -17.978  1.00 29.22    -0.000 A 
HETATM   30  C18 MK1 B 902      17.632  15.526 -17.244  1.00 30.97    -0.000 A 
HETATM   31  C19 MK1 B 902      17.368  14.429 -16.415  1.00 29.25    -0.000 A 
HETATM   32  C20 MK1 B 902      18.301  13.398 -16.311  1.00 29.96    -0.004 A 
ENDBRANCH  26  27
ENDBRANCH  25  26
BRANCH  25  33
HETATM   33  C21 MK1 B 902      21.641  10.431 -17.875  1.00 29.35     0.252 C 
HETATM   34  O3  MK1 B 902      22.261   9.849 -18.778  1.00 32.66    -0.271 OA
HETATM   35  N4  MK1 B 902      21.534   9.964 -16.634  1.00 31.19    -0.233 NA
BRANCH  35  36
HETATM   36  C22 MK1 B 902      21.974   8.624 -16.284  1.00 29.22     0.159 C 
HETATM   37  C23 MK1 B 902      21.185   8.051 -15.119  1.00 28.82     0.183 C 
HETATM   38  O4  MK1 B 902      20.821   9.084 -14.215  1.00 28.32    -0.221 OA
HETATM   39  C24 MK1 B 902      22.080   6.994 -14.514  1.00 32.05     0.061 C 
HETATM   40  C25 MK1 B 902      23.532   7.365 -14.687  1.00 31.29    -0.022 A 
HETATM   41  C26 MK1 B 902      24.735   7.038 -14.107  1.00 32.00    -0.004 A 
HETATM   42  C30 MK1 B 902      23.441   8.427 -15.820  1.00 31.86    -0.001 A 
HETATM   43  C27 MK1 B 902      25.890   7.677 -14.571  1.00 28.00    -0.000 A 
HETATM   44  C28 MK1 B 902      25.822   8.626 -15.602  1.00 29.01    -0.000 A 
HETATM   45  C29 MK1 B 902      24.621   8.985 -16.198  1.00 27.70    -0.003 A 
ENDBRANCH  35  36
ENDBRANCH  25  33
ENDBRANCH  24  25
ENDBRANCH   2  24
TORSDOF 12
ENDMDL
MODEL 9
REMARK VINA RESULT:    -6.057      1.982     10.503
REMARK INTER + INTRA:         -12.480
REMARK INTER:                  -9.937
REMARK INTRA:                  -2.544
REMARK UNBOUND:                -2.174
REMARK  12 active torsions:
REMARK  status: ('A' for Active; 'I' for Inactive)
REMARK    1  A    between atoms: N1_2  and  C31_40 
REMARK    2  A    between atoms: C2_4  and  C3_7 
REMARK       I    between atoms: N2_5  and  C3_7 
REMARK    3  A    between atoms: N2_5  and  C4_10 
REMARK    4  A    between atoms: N3_8  and  C10_19 
REMARK       I    between atoms: N4_11  and  C21_30 
REMARK    5  A    between atoms: N4_11  and  C22_31 
REMARK    6  A    between atoms: C10_19  and  C11_20 
REMARK    7  A    between atoms: C11_20  and  C12_21 
REMARK    8  A    between atoms: C12_21  and  C13_22 
REMARK    9  A    between atoms: C13_22  and  C14_23 
REMARK   10  A    between atoms: C13_22  and  C21_30 
REMARK   11  A    between atoms: C14_23  and  C15_24 
REMARK   12  A    between atoms: C31_40  and  C32_41 
ROOT
HETATM    1  O2  MK1 B 902      21.342   9.185 -19.296  1.00 15.87    -0.221 OA
HETATM    2  C11 MK1 B 902      20.896  10.133 -18.373  1.00 21.68     0.174 C 
ENDROOT
BRANCH   2   3
HETATM    3  C10 MK1 B 902      20.958  11.312 -19.345  1.00 20.86     0.131 C 
BRANCH   3   4
HETATM    4  N3  MK1 B 902      20.347  12.527 -18.844  1.00 28.91    -0.357 N 
HETATM    5  C2  MK1 B 902      21.025  13.831 -19.167  1.00 27.27     0.192 C 
HETATM    6  C1  MK1 B 902      20.055  14.836 -18.578  1.00 30.30     0.282 C 
HETATM    7  N1  MK1 B 902      18.634  14.889 -19.017  1.00 28.25     0.146 N 
HETATM    8  C9  MK1 B 902      18.053  13.664 -18.692  1.00 27.47     0.274 C 
HETATM    9  C8  MK1 B 902      18.874  12.427 -18.996  1.00 26.24     0.133 C 
BRANCH   5  10
HETATM   10  C3  MK1 B 902      22.352  13.993 -18.477  1.00 28.85     0.273 C 
HETATM   11  O1  MK1 B 902      22.476  13.690 -17.297  1.00 29.59    -0.269 OA
HETATM   12  N2  MK1 B 902      23.344  14.481 -19.195  1.00 22.29    -0.240 NA
BRANCH  12  13
HETATM   13  C4  MK1 B 902      24.716  14.686 -18.857  1.00 23.47     0.088 C 
HETATM   14  C5  MK1 B 902      24.972  16.204 -18.916  1.00 27.66     0.025 C 
HETATM   15  C6  MK1 B 902      25.595  14.017 -19.695  1.00 21.71     0.025 C 
HETATM   16  C7  MK1 B 902      25.043  14.311 -17.478  1.00 22.75     0.025 C 
ENDBRANCH  12  13
ENDBRANCH   5  10
BRANCH   7  17
HETATM   17  C31 MK1 B 902      17.852  16.065 -18.620  1.00 36.25     0.278 C 
BRANCH  17  18
HETATM   18  C32 MK1 B 902      18.174  17.461 -19.167  1.00 42.75     0.030 A 
HETATM   19  C33 MK1 B 902      18.562  17.691 -20.495  1.00 47.41     0.097 A 
HETATM   20  N5  MK1 B 902      18.853  18.938 -21.072  1.00 51.38    -0.243 NA
HETATM   21  C34 MK1 B 902      18.706  19.962 -20.137  1.00 50.60     0.099 A 
HETATM   22  C35 MK1 B 902      18.324  19.802 -18.802  1.00 49.34     0.020 A 
HETATM   23  C36 MK1 B 902      18.051  18.530 -18.306  1.00 44.71     0.001 A 
ENDBRANCH  17  18
ENDBRANCH   7  17
ENDBRANCH   3   4
ENDBRANCH   2   3
BRANCH   2  24
HETATM   24  C12 MK1 B 902      21.764  10.010 -17.107  1.00 21.49     0.045 C 
BRANCH  24  25
HETATM   25  C13 MK1 B 902      23.220   9.532 -17.201  1.00 26.89     0.088 C 
BRANCH  25  26
HETATM   26  C14 MK1 B 902      24.225  10.675 -16.973  1.00 28.67     0.036 C 
BRANCH  26  27
HETATM   27  C15 MK1 B 902      25.336  10.658 -17.958  1.00 26.89    -0.022 A 
HETATM   28  C16 MK1 B 902      26.657  10.940 -17.606  1.00 29.22    -0.004 A 
HETATM   29  C17 MK1 B 902      27.658  10.948 -18.566  1.00 29.22    -0.000 A 
HETATM   30  C18 MK1 B 902      27.320  10.669 -19.892  1.00 30.97    -0.000 A 
HETATM   31  C19 MK1 B 902      25.998  10.376 -20.247  1.00 29.25    -0.000 A 
HETATM   32  C20 MK1 B 902      25.003  10.372 -19.270  1.00 29.96    -0.004 A 
ENDBRANCH  26  27
ENDBRANCH  25  26
BRANCH  25  33
HETATM   33  C21 MK1 B 902      23.518   8.409 -16.213  1.00 29.35     0.252 C 
HETATM   34  O3  MK1 B 902      24.289   7.487 -16.520  1.00 32.66    -0.271 OA
HETATM   35  N4  MK1 B 902      22.809   8.437 -15.088  1.00 31.19    -0.233 NA
BRANCH  35  36
HETATM   36  C22 MK1 B 902      22.733   7.282 -14.209  1.00 29.22     0.159 C 
HETATM   37  C23 MK1 B 902      21.405   7.214 -13.474  1.00 28.82     0.183 C 
HETATM   38  O4  MK1 B 902      20.929   8.522 -13.194  1.00 28.32    -0.221 OA
HETATM   39  C24 MK1 B 902      21.676   6.384 -12.240  1.00 32.05     0.061 C 
HETATM   40  C25 MK1 B 902      23.099   6.573 -11.775  1.00 31.29    -0.022 A 
HETATM   41  C26 MK1 B 902      23.816   6.394 -10.615  1.00 32.00    -0.004 A 
HETATM   42  C30 MK1 B 902      23.760   7.166 -13.052  1.00 31.86    -0.001 A 
HETATM   43  C27 MK1 B 902      25.169   6.748 -10.611  1.00 28.00    -0.000 A 
HETATM   44  C28 MK1 B 902      25.779   7.271 -11.761  1.00 29.01    -0.000 A 
HETATM   45  C29 MK1 B 902      25.079   7.475 -12.942  1.00 27.70    -0.003 A 
ENDBRANCH  35  36
ENDBRANCH  25  33
ENDBRANCH  24  25
ENDBRANCH   2  24
TORSDOF 12
ENDMDL
