MODEL 1
REMARK VINA RESULT:   -10.556      0.000      0.000
REMARK INTER + INTRA:         -19.731
REMARK INTER:                 -17.961
REMARK INTRA:                  -1.770
REMARK UNBOUND:                -1.770
REMARK  12 active torsions:
REMARK  status: ('A' for Active; 'I' for Inactive)
REMARK    1  A    between atoms: N1_2  and  C31_40 
REMARK    2  A    between atoms: C2_4  and  C3_7 
REMARK       I    between atoms: N2_5  and  C3_7 
REMARK    3  A    between atoms: N2_5  and  C4_10 
REMARK    4  A    between atoms: N3_8  and  C10_19 
REMARK       I    between atoms: N4_11  and  C21_30 
REMARK    5  A    between atoms: N4_11  and  C22_31 
REMARK    6  A    between atoms: C10_19  and  C11_20 
REMARK    7  A    between atoms: C11_20  and  C12_21 
REMARK    8  A    between atoms: C12_21  and  C13_22 
REMARK    9  A    between atoms: C13_22  and  C14_23 
REMARK   10  A    between atoms: C13_22  and  C21_30 
REMARK   11  A    between atoms: C14_23  and  C15_24 
REMARK   12  A    between atoms: C31_40  and  C32_41 
ROOT
HETATM    1  O2  MK1 B 902      15.142  24.380   4.801  1.00 15.87    -0.221 OA
HETATM    2  C11 MK1 B 902      13.986  23.785   5.308  1.00 21.68     0.174 C 
ENDROOT
BRANCH   2   3
HETATM    3  C10 MK1 B 902      13.035  24.864   4.787  1.00 20.86     0.131 C 
BRANCH   3   4
HETATM    4  N3  MK1 B 902      11.695  24.388   4.506  1.00 28.91    -0.357 N 
HETATM    5  C2  MK1 B 902      10.545  25.172   5.079  1.00 27.27     0.192 C 
HETATM    6  C1  MK1 B 902       9.353  24.442   4.492  1.00 30.30     0.282 C 
HETATM    7  N1  MK1 B 902       9.180  24.302   3.021  1.00 28.25     0.146 N 
HETATM    8  C9  MK1 B 902      10.264  23.568   2.542  1.00 27.47     0.274 C 
HETATM    9  C8  MK1 B 902      11.625  23.941   3.092  1.00 26.24     0.133 C 
BRANCH   5  10
HETATM   10  C3  MK1 B 902      10.462  25.087   6.579  1.00 28.85     0.273 C 
HETATM   11  O1  MK1 B 902      10.440  23.996   7.136  1.00 29.59    -0.269 OA
HETATM   12  N2  MK1 B 902      10.401  26.225   7.240  1.00 22.29    -0.240 NA
BRANCH  12  13
HETATM   13  C4  MK1 B 902      10.385  26.478   8.645  1.00 23.47     0.088 C 
HETATM   14  C5  MK1 B 902       9.971  27.950   8.833  1.00 27.66     0.025 C 
HETATM   15  C6  MK1 B 902      11.603  26.238   9.261  1.00 21.71     0.025 C 
HETATM   16  C7  MK1 B 902       9.362  25.714   9.367  1.00 22.75     0.025 C 
ENDBRANCH  12  13
ENDBRANCH   5  10
BRANCH   7  17
HETATM   17  C31 MK1 B 902       7.869  23.848   2.539  1.00 36.25     0.278 C 
BRANCH  17  18
HETATM   18  C32 MK1 B 902       6.576  24.218   3.274  1.00 42.75     0.030 A 
HETATM   19  C33 MK1 B 902       6.215  25.542   3.567  1.00 47.41     0.097 A 
HETATM   20  N5  MK1 B 902       5.041  25.959   4.217  1.00 51.38    -0.243 NA
HETATM   21  C34 MK1 B 902       4.244  24.865   4.550  1.00 50.60     0.099 A 
HETATM   22  C35 MK1 B 902       4.544  23.525   4.288  1.00 49.34     0.020 A 
HETATM   23  C36 MK1 B 902       5.730  23.193   3.638  1.00 44.71     0.001 A 
ENDBRANCH  17  18
ENDBRANCH   7  17
ENDBRANCH   3   4
ENDBRANCH   2   3
BRANCH   2  24
HETATM   24  C12 MK1 B 902      14.219  23.487   6.800  1.00 21.49     0.045 C 
BRANCH  24  25
HETATM   25  C13 MK1 B 902      15.326  22.518   7.240  1.00 26.89     0.088 C 
BRANCH  25  26
HETATM   26  C14 MK1 B 902      15.300  22.252   8.756  1.00 28.67     0.036 C 
BRANCH  26  27
HETATM   27  C15 MK1 B 902      16.466  21.456   9.213  1.00 26.89    -0.022 A 
HETATM   28  C16 MK1 B 902      17.781  21.792   8.886  1.00 29.22    -0.004 A 
HETATM   29  C17 MK1 B 902      18.839  20.999   9.304  1.00 29.22    -0.000 A 
HETATM   30  C18 MK1 B 902      18.565  19.855  10.058  1.00 30.97    -0.000 A 
HETATM   31  C19 MK1 B 902      17.248  19.519  10.394  1.00 29.25    -0.000 A 
HETATM   32  C20 MK1 B 902      16.195  20.327   9.967  1.00 29.96    -0.004 A 
ENDBRANCH  26  27
ENDBRANCH  25  26
BRANCH  25  33
HETATM   33  C21 MK1 B 902      15.247  21.186   6.504  1.00 29.35     0.252 C 
HETATM   34  O3  MK1 B 902      14.185  20.546   6.469  1.00 32.66    -0.271 OA
HETATM   35  N4  MK1 B 902      16.402  20.727   6.031  1.00 31.19    -0.233 NA
BRANCH  35  36
HETATM   36  C22 MK1 B 902      16.555  19.345   5.607  1.00 29.22     0.159 C 
HETATM   37  C23 MK1 B 902      17.938  18.802   5.926  1.00 28.82     0.183 C 
HETATM   38  O4  MK1 B 902      18.909  19.832   5.817  1.00 28.32    -0.221 OA
HETATM   39  C24 MK1 B 902      18.147  17.658   4.960  1.00 32.05     0.061 C 
HETATM   40  C25 MK1 B 902      17.419  17.916   3.664  1.00 31.29    -0.022 A 
HETATM   41  C26 MK1 B 902      17.484  17.475   2.363  1.00 32.00    -0.004 A 
HETATM   42  C30 MK1 B 902      16.409  19.017   4.097  1.00 31.86    -0.001 A 
HETATM   43  C27 MK1 B 902      16.603  18.033   1.430  1.00 28.00    -0.000 A 
HETATM   44  C28 MK1 B 902      15.678  19.016   1.813  1.00 29.01    -0.000 A 
HETATM   45  C29 MK1 B 902      15.598  19.490   3.115  1.00 27.70    -0.003 A 
ENDBRANCH  35  36
ENDBRANCH  25  33
ENDBRANCH  24  25
ENDBRANCH   2  24
TORSDOF 12
ENDMDL
MODEL 2
REMARK VINA RESULT:   -10.232      1.241      4.348
REMARK INTER + INTRA:         -19.180
REMARK INTER:                 -17.281
REMARK INTRA:                  -1.900
REMARK UNBOUND:                -1.770
REMARK  12 active torsions:
REMARK  status: ('A' for Active; 'I' for Inactive)
REMARK    1  A    between atoms: N1_2  and  C31_40 
REMARK    2  A    between atoms: C2_4  and  C3_7 
REMARK       I    between atoms: N2_5  and  C3_7 
REMARK    3  A    between atoms: N2_5  and  C4_10 
REMARK    4  A    between atoms: N3_8  and  C10_19 
REMARK       I    between atoms: N4_11  and  C21_30 
REMARK    5  A    between atoms: N4_11  and  C22_31 
REMARK    6  A    between atoms: C10_19  and  C11_20 
REMARK    7  A    between atoms: C11_20  and  C12_21 
REMARK    8  A    between atoms: C12_21  and  C13_22 
REMARK    9  A    between atoms: C13_22  and  C14_23 
REMARK   10  A    between atoms: C13_22  and  C21_30 
REMARK   11  A    between atoms: C14_23  and  C15_24 
REMARK   12  A    between atoms: C31_40  and  C32_41 
ROOT
HETATM    1  O2  MK1 B 902      14.611  24.516   5.804  1.00 15.87    -0.221 OA
HETATM    2  C11 MK1 B 902      13.802  23.628   5.092  1.00 21.68     0.174 C 
ENDROOT
BRANCH   2   3
HETATM    3  C10 MK1 B 902      12.871  24.705   4.534  1.00 20.86     0.131 C 
BRANCH   3   4
HETATM    4  N3  MK1 B 902      11.509  24.259   4.321  1.00 28.91    -0.357 N 
HETATM    5  C2  MK1 B 902      10.404  25.084   4.925  1.00 27.27     0.192 C 
HETATM    6  C1  MK1 B 902       9.170  24.373   4.405  1.00 30.30     0.282 C 
HETATM    7  N1  MK1 B 902       8.930  24.206   2.946  1.00 28.25     0.146 N 
HETATM    8  C9  MK1 B 902       9.974  23.435   2.438  1.00 27.47     0.274 C 
HETATM    9  C8  MK1 B 902      11.367  23.784   2.921  1.00 26.24     0.133 C 
BRANCH   5  10
HETATM   10  C3  MK1 B 902      10.384  25.031   6.429  1.00 28.85     0.273 C 
HETATM   11  O1  MK1 B 902      10.459  23.956   7.011  1.00 29.59    -0.269 OA
HETATM   12  N2  MK1 B 902      10.268  26.180   7.065  1.00 22.29    -0.240 NA
BRANCH  12  13
HETATM   13  C4  MK1 B 902      10.286  26.467   8.464  1.00 23.47     0.088 C 
HETATM   14  C5  MK1 B 902      11.717  26.186   8.962  1.00 27.66     0.025 C 
HETATM   15  C6  MK1 B 902       9.369  25.723   9.190  1.00 21.71     0.025 C 
HETATM   16  C7  MK1 B 902      10.060  27.881   8.775  1.00 22.75     0.025 C 
ENDBRANCH  12  13
ENDBRANCH   5  10
BRANCH   7  17
HETATM   17  C31 MK1 B 902       7.590  23.777   2.531  1.00 36.25     0.278 C 
BRANCH  17  18
HETATM   18  C32 MK1 B 902       6.341  24.173   3.327  1.00 42.75     0.030 A 
HETATM   19  C33 MK1 B 902       6.043  25.500   3.673  1.00 47.41     0.097 A 
HETATM   20  N5  MK1 B 902       4.913  25.941   4.381  1.00 51.38    -0.243 NA
HETATM   21  C34 MK1 B 902       4.088  24.868   4.713  1.00 50.60     0.099 A 
HETATM   22  C35 MK1 B 902       4.325  23.526   4.401  1.00 49.34     0.020 A 
HETATM   23  C36 MK1 B 902       5.471  23.170   3.694  1.00 44.71     0.001 A 
ENDBRANCH  17  18
ENDBRANCH   7  17
ENDBRANCH   3   4
ENDBRANCH   2   3
BRANCH   2  24
HETATM   24  C12 MK1 B 902      13.356  22.514   6.056  1.00 21.49     0.045 C 
BRANCH  24  25
HETATM   25  C13 MK1 B 902      14.265  21.308   6.332  1.00 26.89     0.088 C 
BRANCH  25  26
HETATM   26  C14 MK1 B 902      15.384  21.169   5.284  1.00 28.67     0.036 C 
BRANCH  26  27
HETATM   27  C15 MK1 B 902      15.180  20.004   4.387  1.00 26.89    -0.022 A 
HETATM   28  C16 MK1 B 902      15.201  18.686   4.849  1.00 29.22    -0.004 A 
HETATM   29  C17 MK1 B 902      15.042  17.626   3.969  1.00 29.22    -0.000 A 
HETATM   30  C18 MK1 B 902      14.860  17.901   2.611  1.00 30.97    -0.000 A 
HETATM   31  C19 MK1 B 902      14.830  19.221   2.145  1.00 29.25    -0.000 A 
HETATM   32  C20 MK1 B 902      14.992  20.276   3.043  1.00 29.96    -0.004 A 
ENDBRANCH  26  27
ENDBRANCH  25  26
BRANCH  25  33
HETATM   33  C21 MK1 B 902      14.893  21.369   7.719  1.00 29.35     0.252 C 
HETATM   34  O3  MK1 B 902      14.414  22.101   8.598  1.00 32.66    -0.271 OA
HETATM   35  N4  MK1 B 902      16.031  20.693   7.859  1.00 31.19    -0.233 NA
BRANCH  35  36
HETATM   36  C22 MK1 B 902      16.912  20.914   8.993  1.00 29.22     0.159 C 
HETATM   37  C23 MK1 B 902      18.301  21.349   8.558  1.00 28.82     0.183 C 
HETATM   38  O4  MK1 B 902      18.647  20.732   7.327  1.00 28.32    -0.221 OA
HETATM   39  C24 MK1 B 902      19.212  20.978   9.706  1.00 32.05     0.061 C 
HETATM   40  C25 MK1 B 902      18.695  19.752  10.419  1.00 31.29    -0.022 A 
HETATM   41  C26 MK1 B 902      19.197  18.780  11.251  1.00 32.00    -0.004 A 
HETATM   42  C30 MK1 B 902      17.217  19.720   9.935  1.00 31.86    -0.001 A 
HETATM   43  C27 MK1 B 902      18.339  17.756  11.668  1.00 28.00    -0.000 A 
HETATM   44  C28 MK1 B 902      17.001  17.725  11.249  1.00 29.01    -0.000 A 
HETATM   45  C29 MK1 B 902      16.469  18.685  10.400  1.00 27.70    -0.003 A 
ENDBRANCH  35  36
ENDBRANCH  25  33
ENDBRANCH  24  25
ENDBRANCH   2  24
TORSDOF 12
ENDMDL
MODEL 3
REMARK VINA RESULT:   -10.189      1.905     10.896
REMARK INTER + INTRA:         -19.106
REMARK INTER:                 -17.181
REMARK INTRA:                  -1.926
REMARK UNBOUND:                -1.770
REMARK  12 active torsions:
REMARK  status: ('A' for Active; 'I' for Inactive)
REMARK    1  A    between atoms: N1_2  and  C31_40 
REMARK    2  A    between atoms: C2_4  and  C3_7 
REMARK       I    between atoms: N2_5  and  C3_7 
REMARK    3  A    between atoms: N2_5  and  C4_10 
REMARK    4  A    between atoms: N3_8  and  C10_19 
REMARK       I    between atoms: N4_11  and  C21_30 
REMARK    5  A    between atoms: N4_11  and  C22_31 
REMARK    6  A    between atoms: C10_19  and  C11_20 
REMARK    7  A    between atoms: C11_20  and  C12_21 
REMARK    8  A    between atoms: C12_21  and  C13_22 
REMARK    9  A    between atoms: C13_22  and  C14_23 
REMARK   10  A    between atoms: C13_22  and  C21_30 
REMARK   11  A    between atoms: C14_23  and  C15_24 
REMARK   12  A    between atoms: C31_40  and  C32_41 
ROOT
HETATM    1  O2  MK1 B 902      12.154  23.596   2.256  1.00 15.87    -0.221 OA
HETATM    2  C11 MK1 B 902      11.901  23.059   3.519  1.00 21.68     0.174 C 
ENDROOT
BRANCH   2   3
HETATM    3  C10 MK1 B 902      13.130  22.149   3.532  1.00 20.86     0.131 C 
BRANCH   3   4
HETATM    4  N3  MK1 B 902      13.798  22.073   4.816  1.00 28.91    -0.357 N 
HETATM    5  C2  MK1 B 902      15.168  21.450   4.851  1.00 27.27     0.192 C 
HETATM    6  C1  MK1 B 902      15.558  21.648   6.302  1.00 30.30     0.282 C 
HETATM    7  N1  MK1 B 902      15.609  23.004   6.912  1.00 28.25     0.146 N 
HETATM    8  C9  MK1 B 902      14.320  23.532   6.859  1.00 27.47     0.274 C 
HETATM    9  C8  MK1 B 902      13.564  23.335   5.562  1.00 26.24     0.133 C 
BRANCH   5  10
HETATM   10  C3  MK1 B 902      15.153  19.974   4.560  1.00 28.85     0.273 C 
HETATM   11  O1  MK1 B 902      14.493  19.214   5.257  1.00 29.59    -0.269 OA
HETATM   12  N2  MK1 B 902      15.886  19.557   3.547  1.00 22.29    -0.240 NA
BRANCH  12  13
HETATM   13  C4  MK1 B 902      16.027  18.252   2.984  1.00 23.47     0.088 C 
HETATM   14  C5  MK1 B 902      17.000  18.377   1.797  1.00 27.66     0.025 C 
HETATM   15  C6  MK1 B 902      14.825  17.701   2.566  1.00 21.71     0.025 C 
HETATM   16  C7  MK1 B 902      16.668  17.291   3.886  1.00 22.75     0.025 C 
ENDBRANCH  12  13
ENDBRANCH   5  10
BRANCH   7  17
HETATM   17  C31 MK1 B 902      16.272  23.130   8.216  1.00 36.25     0.278 C 
BRANCH  17  18
HETATM   18  C32 MK1 B 902      16.911  21.920   8.907  1.00 42.75     0.030 A 
HETATM   19  C33 MK1 B 902      18.287  21.649   8.859  1.00 47.41     0.097 A 
HETATM   20  N5  MK1 B 902      18.945  20.575   9.481  1.00 51.38    -0.243 NA
HETATM   21  C34 MK1 B 902      18.041  19.779  10.182  1.00 50.60     0.099 A 
HETATM   22  C35 MK1 B 902      16.662  19.992  10.270  1.00 49.34     0.020 A 
HETATM   23  C36 MK1 B 902      16.085  21.082   9.624  1.00 44.71     0.001 A 
ENDBRANCH  17  18
ENDBRANCH   7  17
ENDBRANCH   3   4
ENDBRANCH   2   3
BRANCH   2  24
HETATM   24  C12 MK1 B 902      10.448  22.549   3.538  1.00 21.49     0.045 C 
BRANCH  24  25
HETATM   25  C13 MK1 B 902       9.278  23.512   3.296  1.00 26.89     0.088 C 
BRANCH  25  26
HETATM   26  C14 MK1 B 902       7.922  22.891   3.676  1.00 28.67     0.036 C 
BRANCH  26  27
HETATM   27  C15 MK1 B 902       6.783  23.546   2.985  1.00 26.89    -0.022 A 
HETATM   28  C16 MK1 B 902       6.912  24.155   1.735  1.00 29.22    -0.004 A 
HETATM   29  C17 MK1 B 902       5.829  24.788   1.143  1.00 29.22    -0.000 A 
HETATM   30  C18 MK1 B 902       4.607  24.806   1.820  1.00 30.97    -0.000 A 
HETATM   31  C19 MK1 B 902       4.473  24.189   3.070  1.00 29.25    -0.000 A 
HETATM   32  C20 MK1 B 902       5.571  23.557   3.653  1.00 29.96    -0.004 A 
ENDBRANCH  26  27
ENDBRANCH  25  26
BRANCH  25  33
HETATM   33  C21 MK1 B 902       9.449  24.823   4.055  1.00 29.35     0.252 C 
HETATM   34  O3  MK1 B 902       9.518  25.901   3.446  1.00 32.66    -0.271 OA
HETATM   35  N4  MK1 B 902       9.639  24.702   5.366  1.00 31.19    -0.233 NA
BRANCH  35  36
HETATM   36  C22 MK1 B 902      10.140  25.805   6.168  1.00 29.22     0.159 C 
HETATM   37  C23 MK1 B 902      11.125  25.339   7.226  1.00 28.82     0.183 C 
HETATM   38  O4  MK1 B 902      10.769  24.047   7.695  1.00 28.32    -0.221 OA
HETATM   39  C24 MK1 B 902      11.097  26.408   8.294  1.00 32.05     0.061 C 
HETATM   40  C25 MK1 B 902       9.732  27.046   8.372  1.00 31.29    -0.022 A 
HETATM   41  C26 MK1 B 902       9.006  27.772   9.286  1.00 32.00    -0.004 A 
HETATM   42  C30 MK1 B 902       9.125  26.633   7.000  1.00 31.86    -0.001 A 
HETATM   43  C27 MK1 B 902       7.701  28.148   8.948  1.00 28.00    -0.000 A 
HETATM   44  C28 MK1 B 902       7.149  27.794   7.708  1.00 29.01    -0.000 A 
HETATM   45  C29 MK1 B 902       7.853  27.051   6.770  1.00 27.70    -0.003 A 
ENDBRANCH  35  36
ENDBRANCH  25  33
ENDBRANCH  24  25
ENDBRANCH   2  24
TORSDOF 12
ENDMDL
MODEL 4
REMARK VINA RESULT:    -9.955      2.391      4.582
REMARK INTER + INTRA:         -18.709
REMARK INTER:                 -17.118
REMARK INTRA:                  -1.591
REMARK UNBOUND:                -1.770
REMARK  12 active torsions:
REMARK  status: ('A' for Active; 'I' for Inactive)
REMARK    1  A    between atoms: N1_2  and  C31_40 
REMARK    2  A    between atoms: C2_4  and  C3_7 
REMARK       I    between atoms: N2_5  and  C3_7 
REMARK    3  A    between atoms: N2_5  and  C4_10 
REMARK    4  A    between atoms: N3_8  and  C10_19 
REMARK       I    between atoms: N4_11  and  C21_30 
REMARK    5  A    between atoms: N4_11  and  C22_31 
REMARK    6  A    between atoms: C10_19  and  C11_20 
REMARK    7  A    between atoms: C11_20  and  C12_21 
REMARK    8  A    between atoms: C12_21  and  C13_22 
REMARK    9  A    between atoms: C13_22  and  C14_23 
REMARK   10  A    between atoms: C13_22  and  C21_30 
REMARK   11  A    between atoms: C14_23  and  C15_24 
REMARK   12  A    between atoms: C31_40  and  C32_41 
ROOT
HETATM    1  O2  MK1 B 902      10.833  23.789   1.774  1.00 15.87    -0.221 OA
HETATM    2  C11 MK1 B 902      10.613  23.867   3.151  1.00 21.68     0.174 C 
ENDROOT
BRANCH   2   3
HETATM    3  C10 MK1 B 902       9.648  25.051   3.070  1.00 20.86     0.131 C 
BRANCH   3   4
HETATM    4  N3  MK1 B 902       8.324  24.774   3.589  1.00 28.91    -0.357 N 
HETATM    5  C2  MK1 B 902       7.349  25.919   3.653  1.00 27.27     0.192 C 
HETATM    6  C1  MK1 B 902       6.090  25.223   4.134  1.00 30.30     0.282 C 
HETATM    7  N1  MK1 B 902       5.489  24.096   3.371  1.00 28.25     0.146 N 
HETATM    8  C9  MK1 B 902       6.427  23.065   3.345  1.00 27.47     0.274 C 
HETATM    9  C8  MK1 B 902       7.861  23.465   3.064  1.00 26.24     0.133 C 
BRANCH   5  10
HETATM   10  C3  MK1 B 902       7.731  26.963   4.666  1.00 28.85     0.273 C 
HETATM   11  O1  MK1 B 902       8.537  27.838   4.378  1.00 29.59    -0.269 OA
HETATM   12  N2  MK1 B 902       7.171  26.874   5.857  1.00 22.29    -0.240 NA
BRANCH  12  13
HETATM   13  C4  MK1 B 902       7.272  27.735   6.992  1.00 23.47     0.088 C 
HETATM   14  C5  MK1 B 902       6.882  26.899   8.225  1.00 27.66     0.025 C 
HETATM   15  C6  MK1 B 902       6.470  28.861   6.900  1.00 21.71     0.025 C 
HETATM   16  C7  MK1 B 902       8.640  28.183   7.268  1.00 22.75     0.025 C 
ENDBRANCH  12  13
ENDBRANCH   5  10
BRANCH   7  17
HETATM   17  C31 MK1 B 902       4.130  23.683   3.742  1.00 36.25     0.278 C 
BRANCH  17  18
HETATM   18  C32 MK1 B 902       3.714  22.207   3.734  1.00 42.75     0.030 A 
HETATM   19  C33 MK1 B 902       2.854  21.661   2.770  1.00 47.41     0.097 A 
HETATM   20  N5  MK1 B 902       2.444  20.320   2.686  1.00 51.38    -0.243 NA
HETATM   21  C34 MK1 B 902       3.015  19.563   3.708  1.00 50.60     0.099 A 
HETATM   22  C35 MK1 B 902       3.878  20.044   4.698  1.00 49.34     0.020 A 
HETATM   23  C36 MK1 B 902       4.237  21.390   4.712  1.00 44.71     0.001 A 
ENDBRANCH  17  18
ENDBRANCH   7  17
ENDBRANCH   3   4
ENDBRANCH   2   3
BRANCH   2  24
HETATM   24  C12 MK1 B 902      11.983  23.915   3.850  1.00 21.49     0.045 C 
BRANCH  24  25
HETATM   25  C13 MK1 B 902      12.113  23.570   5.341  1.00 26.89     0.088 C 
BRANCH  25  26
HETATM   26  C14 MK1 B 902      10.794  23.782   6.106  1.00 28.67     0.036 C 
BRANCH  26  27
HETATM   27  C15 MK1 B 902      10.974  24.599   7.331  1.00 26.89    -0.022 A 
HETATM   28  C16 MK1 B 902      12.196  25.180   7.676  1.00 29.22    -0.004 A 
HETATM   29  C17 MK1 B 902      12.327  25.907   8.850  1.00 29.22    -0.000 A 
HETATM   30  C18 MK1 B 902      11.215  26.045   9.683  1.00 30.97    -0.000 A 
HETATM   31  C19 MK1 B 902       9.986  25.470   9.337  1.00 29.25    -0.000 A 
HETATM   32  C20 MK1 B 902       9.869  24.743   8.153  1.00 29.96    -0.004 A 
ENDBRANCH  26  27
ENDBRANCH  25  26
BRANCH  25  33
HETATM   33  C21 MK1 B 902      12.584  22.137   5.558  1.00 29.35     0.252 C 
HETATM   34  O3  MK1 B 902      12.081  21.435   6.449  1.00 32.66    -0.271 OA
HETATM   35  N4  MK1 B 902      13.628  21.762   4.823  1.00 31.19    -0.233 NA
BRANCH  35  36
HETATM   36  C22 MK1 B 902      14.393  20.568   5.141  1.00 29.22     0.159 C 
HETATM   37  C23 MK1 B 902      15.461  20.838   6.186  1.00 28.82     0.183 C 
HETATM   38  O4  MK1 B 902      15.972  22.155   6.040  1.00 28.32    -0.221 OA
HETATM   39  C24 MK1 B 902      16.495  19.754   5.987  1.00 32.05     0.061 C 
HETATM   40  C25 MK1 B 902      16.558  19.341   4.537  1.00 31.29    -0.022 A 
HETATM   41  C26 MK1 B 902      17.452  18.711   3.703  1.00 32.00    -0.004 A 
HETATM   42  C30 MK1 B 902      15.203  19.888   4.006  1.00 31.86    -0.001 A 
HETATM   43  C27 MK1 B 902      17.108  18.559   2.355  1.00 28.00    -0.000 A 
HETATM   44  C28 MK1 B 902      15.882  19.036   1.869  1.00 29.01    -0.000 A 
HETATM   45  C29 MK1 B 902      14.965  19.686   2.683  1.00 27.70    -0.003 A 
ENDBRANCH  35  36
ENDBRANCH  25  33
ENDBRANCH  24  25
ENDBRANCH   2  24
TORSDOF 12
ENDMDL
MODEL 5
REMARK VINA RESULT:    -9.905      2.073     10.650
REMARK INTER + INTRA:         -18.624
REMARK INTER:                 -17.135
REMARK INTRA:                  -1.489
REMARK UNBOUND:                -1.770
REMARK  12 active torsions:
REMARK  status: ('A' for Active; 'I' for Inactive)
REMARK    1  A    between atoms: N1_2  and  C31_40 
REMARK    2  A    between atoms: C2_4  and  C3_7 
REMARK       I    between atoms: N2_5  and  C3_7 
REMARK    3  A    between atoms: N2_5  and  C4_10 
REMARK    4  A    between atoms: N3_8  and  C10_19 
REMARK       I    between atoms: N4_11  and  C21_30 
REMARK    5  A    between atoms: N4_11  and  C22_31 
REMARK    6  A    between atoms: C10_19  and  C11_20 
REMARK    7  A    between atoms: C11_20  and  C12_21 
REMARK    8  A    between atoms: C12_21  and  C13_22 
REMARK    9  A    between atoms: C13_22  and  C14_23 
REMARK   10  A    between atoms: C13_22  and  C21_30 
REMARK   11  A    between atoms: C14_23  and  C15_24 
REMARK   12  A    between atoms: C31_40  and  C32_41 
ROOT
HETATM    1  O2  MK1 B 902      12.541  21.974   6.787  1.00 15.87    -0.221 OA
HETATM    2  C11 MK1 B 902      13.119  21.904   5.518  1.00 21.68     0.174 C 
ENDROOT
BRANCH   2   3
HETATM    3  C10 MK1 B 902      14.465  22.492   5.947  1.00 20.86     0.131 C 
BRANCH   3   4
HETATM    4  N3  MK1 B 902      15.259  21.610   6.779  1.00 28.91    -0.357 N 
HETATM    5  C2  MK1 B 902      16.314  20.778   6.101  1.00 27.27     0.192 C 
HETATM    6  C1  MK1 B 902      16.973  20.096   7.284  1.00 30.30     0.282 C 
HETATM    7  N1  MK1 B 902      17.588  20.883   8.387  1.00 28.25     0.146 N 
HETATM    8  C9  MK1 B 902      16.572  21.629   8.982  1.00 27.47     0.274 C 
HETATM    9  C8  MK1 B 902      15.599  22.312   8.043  1.00 26.24     0.133 C 
BRANCH   5  10
HETATM   10  C3  MK1 B 902      15.741  19.718   5.201  1.00 28.85     0.273 C 
HETATM   11  O1  MK1 B 902      14.796  19.034   5.575  1.00 29.59    -0.269 OA
HETATM   12  N2  MK1 B 902      16.311  19.562   4.022  1.00 22.29    -0.240 NA
BRANCH  12  13
HETATM   13  C4  MK1 B 902      15.964  18.705   2.935  1.00 23.47     0.088 C 
HETATM   14  C5  MK1 B 902      15.071  19.524   1.984  1.00 27.66     0.025 C 
HETATM   15  C6  MK1 B 902      15.311  17.549   3.332  1.00 21.71     0.025 C 
HETATM   16  C7  MK1 B 902      17.111  18.308   2.112  1.00 22.75     0.025 C 
ENDBRANCH  12  13
ENDBRANCH   5  10
BRANCH   7  17
HETATM   17  C31 MK1 B 902      18.451  20.159   9.328  1.00 36.25     0.278 C 
BRANCH  17  18
HETATM   18  C32 MK1 B 902      18.098  18.748   9.813  1.00 42.75     0.030 A 
HETATM   19  C33 MK1 B 902      18.815  17.606   9.429  1.00 47.41     0.097 A 
HETATM   20  N5  MK1 B 902      18.565  16.288   9.845  1.00 51.38    -0.243 NA
HETATM   21  C34 MK1 B 902      17.481  16.243  10.721  1.00 50.60     0.099 A 
HETATM   22  C35 MK1 B 902      16.725  17.341  11.143  1.00 49.34     0.020 A 
HETATM   23  C36 MK1 B 902      17.039  18.617  10.684  1.00 44.71     0.001 A 
ENDBRANCH  17  18
ENDBRANCH   7  17
ENDBRANCH   3   4
ENDBRANCH   2   3
BRANCH   2  24
HETATM   24  C12 MK1 B 902      12.161  22.578   4.520  1.00 21.49     0.045 C 
BRANCH  24  25
HETATM   25  C13 MK1 B 902      10.813  23.144   4.991  1.00 26.89     0.088 C 
BRANCH  25  26
HETATM   26  C14 MK1 B 902      10.856  24.671   5.183  1.00 28.67     0.036 C 
BRANCH  26  27
HETATM   27  C15 MK1 B 902      11.067  25.058   6.600  1.00 26.89    -0.022 A 
HETATM   28  C16 MK1 B 902      12.320  25.405   7.107  1.00 29.22    -0.004 A 
HETATM   29  C17 MK1 B 902      12.477  25.726   8.447  1.00 29.22    -0.000 A 
HETATM   30  C18 MK1 B 902      11.357  25.694   9.282  1.00 30.97    -0.000 A 
HETATM   31  C19 MK1 B 902      10.097  25.354   8.775  1.00 29.25    -0.000 A 
HETATM   32  C20 MK1 B 902       9.955  25.035   7.426  1.00 29.96    -0.004 A 
ENDBRANCH  26  27
ENDBRANCH  25  26
BRANCH  25  33
HETATM   33  C21 MK1 B 902       9.681  22.800   4.030  1.00 29.35     0.252 C 
HETATM   34  O3  MK1 B 902       9.716  21.756   3.360  1.00 32.66    -0.271 OA
HETATM   35  N4  MK1 B 902       8.752  23.741   3.884  1.00 31.19    -0.233 NA
BRANCH  35  36
HETATM   36  C22 MK1 B 902       7.806  23.711   2.781  1.00 29.22     0.159 C 
HETATM   37  C23 MK1 B 902       7.798  25.016   2.003  1.00 28.82     0.183 C 
HETATM   38  O4  MK1 B 902       8.048  26.110   2.873  1.00 28.32    -0.221 OA
HETATM   39  C24 MK1 B 902       6.447  25.067   1.326  1.00 32.05     0.061 C 
HETATM   40  C25 MK1 B 902       5.407  24.364   2.164  1.00 31.29    -0.022 A 
HETATM   41  C26 MK1 B 902       4.036  24.358   2.278  1.00 32.00    -0.004 A 
HETATM   42  C30 MK1 B 902       6.302  23.508   3.104  1.00 31.86    -0.001 A 
HETATM   43  C27 MK1 B 902       3.457  23.546   3.259  1.00 28.00    -0.000 A 
HETATM   44  C28 MK1 B 902       4.254  22.759   4.104  1.00 29.01    -0.000 A 
HETATM   45  C29 MK1 B 902       5.639  22.754   4.021  1.00 27.70    -0.003 A 
ENDBRANCH  35  36
ENDBRANCH  25  33
ENDBRANCH  24  25
ENDBRANCH   2  24
TORSDOF 12
ENDMDL
MODEL 6
REMARK VINA RESULT:    -9.868      2.059     10.802
REMARK INTER + INTRA:         -18.561
REMARK INTER:                 -16.965
REMARK INTRA:                  -1.595
REMARK UNBOUND:                -1.770
REMARK  12 active torsions:
REMARK  status: ('A' for Active; 'I' for Inactive)
REMARK    1  A    between atoms: N1_2  and  C31_40 
REMARK    2  A    between atoms: C2_4  and  C3_7 
REMARK       I    between atoms: N2_5  and  C3_7 
REMARK    3  A    between atoms: N2_5  and  C4_10 
REMARK    4  A    between atoms: N3_8  and  C10_19 
REMARK       I    between atoms: N4_11  and  C21_30 
REMARK    5  A    between atoms: N4_11  and  C22_31 
REMARK    6  A    between atoms: C10_19  and  C11_20 
REMARK    7  A    between atoms: C11_20  and  C12_21 
REMARK    8  A    between atoms: C12_21  and  C13_22 
REMARK    9  A    between atoms: C13_22  and  C14_23 
REMARK   10  A    between atoms: C13_22  and  C21_30 
REMARK   11  A    between atoms: C14_23  and  C15_24 
REMARK   12  A    between atoms: C31_40  and  C32_41 
ROOT
HETATM    1  O2  MK1 B 902      11.765  21.049   7.143  1.00 15.87    -0.221 OA
HETATM    2  C11 MK1 B 902      12.672  21.484   6.174  1.00 21.68     0.174 C 
ENDROOT
BRANCH   2   3
HETATM    3  C10 MK1 B 902      13.572  22.236   7.155  1.00 20.86     0.131 C 
BRANCH   3   4
HETATM    4  N3  MK1 B 902      14.773  21.516   7.530  1.00 28.91    -0.357 N 
HETATM    5  C2  MK1 B 902      15.981  21.671   6.646  1.00 27.27     0.192 C 
HETATM    6  C1  MK1 B 902      17.023  20.876   7.408  1.00 30.30     0.282 C 
HETATM    7  N1  MK1 B 902      17.382  21.216   8.811  1.00 28.25     0.146 N 
HETATM    8  C9  MK1 B 902      16.235  21.053   9.585  1.00 27.47     0.274 C 
HETATM    9  C8  MK1 B 902      14.946  21.594   9.002  1.00 26.24     0.133 C 
BRANCH   5  10
HETATM   10  C3  MK1 B 902      15.804  21.044   5.290  1.00 28.85     0.273 C 
HETATM   11  O1  MK1 B 902      15.669  21.748   4.296  1.00 29.59    -0.269 OA
HETATM   12  N2  MK1 B 902      15.789  19.727   5.237  1.00 22.29    -0.240 NA
BRANCH  12  13
HETATM   13  C4  MK1 B 902      15.709  18.848   4.115  1.00 23.47     0.088 C 
HETATM   14  C5  MK1 B 902      17.154  18.536   3.684  1.00 27.66     0.025 C 
HETATM   15  C6  MK1 B 902      14.993  19.377   3.052  1.00 21.71     0.025 C 
HETATM   16  C7  MK1 B 902      15.129  17.540   4.435  1.00 22.75     0.025 C 
ENDBRANCH  12  13
ENDBRANCH   5  10
BRANCH   7  17
HETATM   17  C31 MK1 B 902      18.591  20.594   9.364  1.00 36.25     0.278 C 
BRANCH  17  18
HETATM   18  C32 MK1 B 902      18.545  19.217  10.036  1.00 42.75     0.030 A 
HETATM   19  C33 MK1 B 902      18.440  18.018   9.317  1.00 47.41     0.097 A 
HETATM   20  N5  MK1 B 902      18.412  16.722   9.859  1.00 51.38    -0.243 NA
HETATM   21  C34 MK1 B 902      18.506  16.766  11.249  1.00 50.60     0.099 A 
HETATM   22  C35 MK1 B 902      18.612  17.923  12.026  1.00 49.34     0.020 A 
HETATM   23  C36 MK1 B 902      18.634  19.172  11.411  1.00 44.71     0.001 A 
ENDBRANCH  17  18
ENDBRANCH   7  17
ENDBRANCH   3   4
ENDBRANCH   2   3
BRANCH   2  24
HETATM   24  C12 MK1 B 902      11.873  22.157   5.044  1.00 21.49     0.045 C 
BRANCH  24  25
HETATM   25  C13 MK1 B 902      12.526  23.224   4.152  1.00 26.89     0.088 C 
BRANCH  25  26
HETATM   26  C14 MK1 B 902      11.941  23.233   2.729  1.00 28.67     0.036 C 
BRANCH  26  27
HETATM   27  C15 MK1 B 902      10.479  23.492   2.719  1.00 26.89    -0.022 A 
HETATM   28  C16 MK1 B 902       9.543  22.536   3.120  1.00 29.22    -0.004 A 
HETATM   29  C17 MK1 B 902       8.184  22.809   3.060  1.00 29.22    -0.000 A 
HETATM   30  C18 MK1 B 902       7.769  24.058   2.589  1.00 30.97    -0.000 A 
HETATM   31  C19 MK1 B 902       8.705  25.021   2.194  1.00 29.25    -0.000 A 
HETATM   32  C20 MK1 B 902      10.068  24.732   2.261  1.00 29.96    -0.004 A 
ENDBRANCH  26  27
ENDBRANCH  25  26
BRANCH  25  33
HETATM   33  C21 MK1 B 902      12.401  24.622   4.746  1.00 29.35     0.252 C 
HETATM   34  O3  MK1 B 902      13.328  25.438   4.641  1.00 32.66    -0.271 OA
HETATM   35  N4  MK1 B 902      11.305  24.837   5.469  1.00 31.19    -0.233 NA
BRANCH  35  36
HETATM   36  C22 MK1 B 902      11.194  25.980   6.360  1.00 29.22     0.159 C 
HETATM   37  C23 MK1 B 902      11.401  25.591   7.813  1.00 28.82     0.183 C 
HETATM   38  O4  MK1 B 902      10.900  24.284   8.049  1.00 28.32    -0.221 OA
HETATM   39  C24 MK1 B 902      10.707  26.668   8.616  1.00 32.05     0.061 C 
HETATM   40  C25 MK1 B 902       9.522  27.215   7.858  1.00 31.29    -0.022 A 
HETATM   41  C26 MK1 B 902       8.367  27.902   8.147  1.00 32.00    -0.004 A 
HETATM   42  C30 MK1 B 902       9.846  26.748   6.410  1.00 31.86    -0.001 A 
HETATM   43  C27 MK1 B 902       7.485  28.187   7.098  1.00 28.00    -0.000 A 
HETATM   44  C28 MK1 B 902       7.774  27.784   5.786  1.00 29.01    -0.000 A 
HETATM   45  C29 MK1 B 902       8.926  27.079   5.465  1.00 27.70    -0.003 A 
ENDBRANCH  35  36
ENDBRANCH  25  33
ENDBRANCH  24  25
ENDBRANCH   2  24
TORSDOF 12
ENDMDL
MODEL 7
REMARK VINA RESULT:    -9.824      2.434     10.887
REMARK INTER + INTRA:         -18.486
REMARK INTER:                 -16.777
REMARK INTRA:                  -1.709
REMARK UNBOUND:                -1.770
REMARK  12 active torsions:
REMARK  status: ('A' for Active; 'I' for Inactive)
REMARK    1  A    between atoms: N1_2  and  C31_40 
REMARK    2  A    between atoms: C2_4  and  C3_7 
REMARK       I    between atoms: N2_5  and  C3_7 
REMARK    3  A    between atoms: N2_5  and  C4_10 
REMARK    4  A    between atoms: N3_8  and  C10_19 
REMARK       I    between atoms: N4_11  and  C21_30 
REMARK    5  A    between atoms: N4_11  and  C22_31 
REMARK    6  A    between atoms: C10_19  and  C11_20 
REMARK    7  A    between atoms: C11_20  and  C12_21 
REMARK    8  A    between atoms: C12_21  and  C13_22 
REMARK    9  A    between atoms: C13_22  and  C14_23 
REMARK   10  A    between atoms: C13_22  and  C21_30 
REMARK   11  A    between atoms: C14_23  and  C15_24 
REMARK   12  A    between atoms: C31_40  and  C32_41 
ROOT
HETATM    1  O2  MK1 B 902      11.788  23.961   2.609  1.00 15.87    -0.221 OA
HETATM    2  C11 MK1 B 902      11.371  23.968   3.941  1.00 21.68     0.174 C 
ENDROOT
BRANCH   2   3
HETATM    3  C10 MK1 B 902      11.765  22.517   4.218  1.00 20.86     0.131 C 
BRANCH   3   4
HETATM    4  N3  MK1 B 902      12.860  22.368   5.156  1.00 28.91    -0.357 N 
HETATM    5  C2  MK1 B 902      14.260  22.495   4.615  1.00 27.27     0.192 C 
HETATM    6  C1  MK1 B 902      15.088  22.387   5.881  1.00 30.30     0.282 C 
HETATM    7  N1  MK1 B 902      14.900  23.336   7.011  1.00 28.25     0.146 N 
HETATM    8  C9  MK1 B 902      13.596  23.176   7.476  1.00 27.47     0.274 C 
HETATM    9  C8  MK1 B 902      12.514  23.062   6.421  1.00 26.24     0.133 C 
BRANCH   5  10
HETATM   10  C3  MK1 B 902      14.643  21.364   3.700  1.00 28.85     0.273 C 
HETATM   11  O1  MK1 B 902      14.566  21.499   2.485  1.00 29.59    -0.269 OA
HETATM   12  N2  MK1 B 902      15.042  20.243   4.268  1.00 22.29    -0.240 NA
BRANCH  12  13
HETATM   13  C4  MK1 B 902      15.530  19.035   3.686  1.00 23.47     0.088 C 
HETATM   14  C5  MK1 B 902      15.173  17.892   4.655  1.00 27.66     0.025 C 
HETATM   15  C6  MK1 B 902      16.894  19.052   3.444  1.00 21.71     0.025 C 
HETATM   16  C7  MK1 B 902      14.860  18.676   2.432  1.00 22.75     0.025 C 
ENDBRANCH  12  13
ENDBRANCH   5  10
BRANCH   7  17
HETATM   17  C31 MK1 B 902      15.929  23.346   8.058  1.00 36.25     0.278 C 
BRANCH  17  18
HETATM   18  C32 MK1 B 902      16.441  22.045   8.687  1.00 42.75     0.030 A 
HETATM   19  C33 MK1 B 902      17.711  21.513   8.417  1.00 47.41     0.097 A 
HETATM   20  N5  MK1 B 902      18.255  20.341   8.968  1.00 51.38    -0.243 NA
HETATM   21  C34 MK1 B 902      17.355  19.744   9.850  1.00 50.60     0.099 A 
HETATM   22  C35 MK1 B 902      16.079  20.220  10.162  1.00 49.34     0.020 A 
HETATM   23  C36 MK1 B 902      15.611  21.392   9.572  1.00 44.71     0.001 A 
ENDBRANCH  17  18
ENDBRANCH   7  17
ENDBRANCH   3   4
ENDBRANCH   2   3
BRANCH   2  24
HETATM   24  C12 MK1 B 902       9.924  24.494   3.984  1.00 21.49     0.045 C 
BRANCH  24  25
HETATM   25  C13 MK1 B 902       9.423  25.308   5.185  1.00 26.89     0.088 C 
BRANCH  25  26
HETATM   26  C14 MK1 B 902      10.551  26.113   5.855  1.00 28.67     0.036 C 
BRANCH  26  27
HETATM   27  C15 MK1 B 902      10.563  25.953   7.331  1.00 26.89    -0.022 A 
HETATM   28  C16 MK1 B 902      11.656  26.319   8.119  1.00 29.22    -0.004 A 
HETATM   29  C17 MK1 B 902      11.637  26.118   9.491  1.00 29.22    -0.000 A 
HETATM   30  C18 MK1 B 902      10.505  25.540  10.071  1.00 30.97    -0.000 A 
HETATM   31  C19 MK1 B 902       9.404  25.179   9.285  1.00 29.25    -0.000 A 
HETATM   32  C20 MK1 B 902       9.438  25.388   7.907  1.00 29.96    -0.004 A 
ENDBRANCH  26  27
ENDBRANCH  25  26
BRANCH  25  33
HETATM   33  C21 MK1 B 902       8.298  26.262   4.801  1.00 29.35     0.252 C 
HETATM   34  O3  MK1 B 902       8.438  27.057   3.859  1.00 32.66    -0.271 OA
HETATM   35  N4  MK1 B 902       7.244  26.256   5.613  1.00 31.19    -0.233 NA
BRANCH  35  36
HETATM   36  C22 MK1 B 902       6.253  27.318   5.581  1.00 29.22     0.159 C 
HETATM   37  C23 MK1 B 902       6.488  28.349   6.672  1.00 28.82     0.183 C 
HETATM   38  O4  MK1 B 902       7.022  27.726   7.831  1.00 28.32    -0.221 OA
HETATM   39  C24 MK1 B 902       5.144  29.006   6.893  1.00 32.05     0.061 C 
HETATM   40  C25 MK1 B 902       4.025  28.030   6.626  1.00 31.29    -0.022 A 
HETATM   41  C26 MK1 B 902       2.696  27.902   6.953  1.00 32.00    -0.004 A 
HETATM   42  C30 MK1 B 902       4.763  26.943   5.793  1.00 31.86    -0.001 A 
HETATM   43  C27 MK1 B 902       2.009  26.768   6.505  1.00 28.00    -0.000 A 
HETATM   44  C28 MK1 B 902       2.661  25.788   5.741  1.00 29.01    -0.000 A 
HETATM   45  C29 MK1 B 902       4.004  25.884   5.406  1.00 27.70    -0.003 A 
ENDBRANCH  35  36
ENDBRANCH  25  33
ENDBRANCH  24  25
ENDBRANCH   2  24
TORSDOF 12
ENDMDL
MODEL 8
REMARK VINA RESULT:    -9.443      2.600      5.606
REMARK INTER + INTRA:         -17.837
REMARK INTER:                 -15.644
REMARK INTRA:                  -2.192
REMARK UNBOUND:                -1.770
REMARK  12 active torsions:
REMARK  status: ('A' for Active; 'I' for Inactive)
REMARK    1  A    between atoms: N1_2  and  C31_40 
REMARK    2  A    between atoms: C2_4  and  C3_7 
REMARK       I    between atoms: N2_5  and  C3_7 
REMARK    3  A    between atoms: N2_5  and  C4_10 
REMARK    4  A    between atoms: N3_8  and  C10_19 
REMARK       I    between atoms: N4_11  and  C21_30 
REMARK    5  A    between atoms: N4_11  and  C22_31 
REMARK    6  A    between atoms: C10_19  and  C11_20 
REMARK    7  A    between atoms: C11_20  and  C12_21 
REMARK    8  A    between atoms: C12_21  and  C13_22 
REMARK    9  A    between atoms: C13_22  and  C14_23 
REMARK   10  A    between atoms: C13_22  and  C21_30 
REMARK   11  A    between atoms: C14_23  and  C15_24 
REMARK   12  A    between atoms: C31_40  and  C32_41 
ROOT
HETATM    1  O2  MK1 B 902      10.461  23.933   1.770  1.00 15.87    -0.221 OA
HETATM    2  C11 MK1 B 902      10.316  24.512   3.032  1.00 21.68     0.174 C 
ENDROOT
BRANCH   2   3
HETATM    3  C10 MK1 B 902       9.559  25.743   2.534  1.00 20.86     0.131 C 
BRANCH   3   4
HETATM    4  N3  MK1 B 902       8.554  26.235   3.456  1.00 28.91    -0.357 N 
HETATM    5  C2  MK1 B 902       7.572  25.238   4.011  1.00 27.27     0.192 C 
HETATM    6  C1  MK1 B 902       6.782  26.093   4.982  1.00 30.30     0.282 C 
HETATM    7  N1  MK1 B 902       7.450  26.812   6.100  1.00 28.25     0.146 N 
HETATM    8  C9  MK1 B 902       8.342  27.722   5.535  1.00 27.47     0.274 C 
HETATM    9  C8  MK1 B 902       9.180  27.216   4.378  1.00 26.24     0.133 C 
BRANCH   5  10
HETATM   10  C3  MK1 B 902       6.625  24.702   2.972  1.00 28.85     0.273 C 
HETATM   11  O1  MK1 B 902       6.928  23.718   2.308  1.00 29.59    -0.269 OA
HETATM   12  N2  MK1 B 902       5.486  25.346   2.812  1.00 22.29    -0.240 NA
BRANCH  12  13
HETATM   13  C4  MK1 B 902       4.369  25.053   1.972  1.00 23.47     0.088 C 
HETATM   14  C5  MK1 B 902       3.685  23.801   2.554  1.00 27.66     0.025 C 
HETATM   15  C6  MK1 B 902       4.718  24.840   0.648  1.00 21.71     0.025 C 
HETATM   16  C7  MK1 B 902       3.329  26.086   1.998  1.00 22.75     0.025 C 
ENDBRANCH  12  13
ENDBRANCH   5  10
BRANCH   7  17
HETATM   17  C31 MK1 B 902       6.589  27.367   7.152  1.00 36.25     0.278 C 
BRANCH  17  18
HETATM   18  C32 MK1 B 902       5.166  27.848   6.847  1.00 42.75     0.030 A 
HETATM   19  C33 MK1 B 902       4.883  29.120   6.328  1.00 47.41     0.097 A 
HETATM   20  N5  MK1 B 902       3.611  29.623   6.007  1.00 51.38    -0.243 NA
HETATM   21  C34 MK1 B 902       2.623  28.676   6.271  1.00 50.60     0.099 A 
HETATM   22  C35 MK1 B 902       2.836  27.395   6.788  1.00 49.34     0.020 A 
HETATM   23  C36 MK1 B 902       4.130  26.970   7.080  1.00 44.71     0.001 A 
ENDBRANCH  17  18
ENDBRANCH   7  17
ENDBRANCH   3   4
ENDBRANCH   2   3
BRANCH   2  24
HETATM   24  C12 MK1 B 902      11.705  24.561   3.695  1.00 21.49     0.045 C 
BRANCH  24  25
HETATM   25  C13 MK1 B 902      11.902  24.068   5.136  1.00 26.89     0.088 C 
BRANCH  25  26
HETATM   26  C14 MK1 B 902      10.654  24.298   6.007  1.00 28.67     0.036 C 
BRANCH  26  27
HETATM   27  C15 MK1 B 902      10.979  24.949   7.301  1.00 26.89    -0.022 A 
HETATM   28  C16 MK1 B 902      12.280  25.310   7.657  1.00 29.22    -0.004 A 
HETATM   29  C17 MK1 B 902      12.543  25.883   8.892  1.00 29.22    -0.000 A 
HETATM   30  C18 MK1 B 902      11.481  26.093   9.775  1.00 30.97    -0.000 A 
HETATM   31  C19 MK1 B 902      10.173  25.741   9.419  1.00 29.25    -0.000 A 
HETATM   32  C20 MK1 B 902       9.926  25.165   8.173  1.00 29.96    -0.004 A 
ENDBRANCH  26  27
ENDBRANCH  25  26
BRANCH  25  33
HETATM   33  C21 MK1 B 902      12.274  22.591   5.189  1.00 29.35     0.252 C 
HETATM   34  O3  MK1 B 902      11.489  21.758   5.669  1.00 32.66    -0.271 OA
HETATM   35  N4  MK1 B 902      13.515  22.302   4.808  1.00 31.19    -0.233 NA
BRANCH  35  36
HETATM   36  C22 MK1 B 902      14.124  21.016   5.108  1.00 29.22     0.159 C 
HETATM   37  C23 MK1 B 902      15.182  21.127   6.193  1.00 28.82     0.183 C 
HETATM   38  O4  MK1 B 902      15.848  22.377   6.105  1.00 28.32    -0.221 OA
HETATM   39  C24 MK1 B 902      16.087  19.933   5.988  1.00 32.05     0.061 C 
HETATM   40  C25 MK1 B 902      16.148  19.558   4.528  1.00 31.29    -0.022 A 
HETATM   41  C26 MK1 B 902      16.989  18.852   3.700  1.00 32.00    -0.004 A 
HETATM   42  C30 MK1 B 902      14.885  20.278   3.976  1.00 31.86    -0.001 A 
HETATM   43  C27 MK1 B 902      16.673  18.781   2.339  1.00 28.00    -0.000 A 
HETATM   44  C28 MK1 B 902      15.528  19.414   1.832  1.00 29.01    -0.000 A 
HETATM   45  C29 MK1 B 902      14.668  20.144   2.641  1.00 27.70    -0.003 A 
ENDBRANCH  35  36
ENDBRANCH  25  33
ENDBRANCH  24  25
ENDBRANCH   2  24
TORSDOF 12
ENDMDL
MODEL 9
REMARK VINA RESULT:    -9.371      2.116     10.847
REMARK INTER + INTRA:         -17.715
REMARK INTER:                 -16.027
REMARK INTRA:                  -1.688
REMARK UNBOUND:                -1.770
REMARK  12 active torsions:
REMARK  status: ('A' for Active; 'I' for Inactive)
REMARK    1  A    between atoms: N1_2  and  C31_40 
REMARK    2  A    between atoms: C2_4  and  C3_7 
REMARK       I    between atoms: N2_5  and  C3_7 
REMARK    3  A    between atoms: N2_5  and  C4_10 
REMARK    4  A    between atoms: N3_8  and  C10_19 
REMARK       I    between atoms: N4_11  and  C21_30 
REMARK    5  A    between atoms: N4_11  and  C22_31 
REMARK    6  A    between atoms: C10_19  and  C11_20 
REMARK    7  A    between atoms: C11_20  and  C12_21 
REMARK    8  A    between atoms: C12_21  and  C13_22 
REMARK    9  A    between atoms: C13_22  and  C14_23 
REMARK   10  A    between atoms: C13_22  and  C21_30 
REMARK   11  A    between atoms: C14_23  and  C15_24 
REMARK   12  A    between atoms: C31_40  and  C32_41 
ROOT
HETATM    1  O2  MK1 B 902      11.805  23.420   2.282  1.00 15.87    -0.221 OA
HETATM    2  C11 MK1 B 902      11.833  23.160   3.653  1.00 21.68     0.174 C 
ENDROOT
BRANCH   2   3
HETATM    3  C10 MK1 B 902      13.108  22.317   3.609  1.00 20.86     0.131 C 
BRANCH   3   4
HETATM    4  N3  MK1 B 902      13.792  22.209   4.882  1.00 28.91    -0.357 N 
HETATM    5  C2  MK1 B 902      15.165  21.591   4.882  1.00 27.27     0.192 C 
HETATM    6  C1  MK1 B 902      15.573  21.752   6.334  1.00 30.30     0.282 C 
HETATM    7  N1  MK1 B 902      15.626  23.091   6.979  1.00 28.25     0.146 N 
HETATM    8  C9  MK1 B 902      14.335  23.615   6.957  1.00 27.47     0.274 C 
HETATM    9  C8  MK1 B 902      13.563  23.449   5.664  1.00 26.24     0.133 C 
BRANCH   5  10
HETATM   10  C3  MK1 B 902      15.152  20.124   4.553  1.00 28.85     0.273 C 
HETATM   11  O1  MK1 B 902      14.451  19.352   5.195  1.00 29.59    -0.269 OA
HETATM   12  N2  MK1 B 902      15.932  19.725   3.567  1.00 22.29    -0.240 NA
BRANCH  12  13
HETATM   13  C4  MK1 B 902      16.090  18.434   2.978  1.00 23.47     0.088 C 
HETATM   14  C5  MK1 B 902      16.582  17.490   4.091  1.00 27.66     0.025 C 
HETATM   15  C6  MK1 B 902      16.973  18.422   1.910  1.00 21.71     0.025 C 
HETATM   16  C7  MK1 B 902      14.830  17.840   2.521  1.00 22.75     0.025 C 
ENDBRANCH  12  13
ENDBRANCH   5  10
BRANCH   7  17
HETATM   17  C31 MK1 B 902      16.305  23.185   8.277  1.00 36.25     0.278 C 
BRANCH  17  18
HETATM   18  C32 MK1 B 902      16.921  21.951   8.948  1.00 42.75     0.030 A 
HETATM   19  C33 MK1 B 902      18.294  21.668   8.914  1.00 47.41     0.097 A 
HETATM   20  N5  MK1 B 902      18.932  20.572   9.518  1.00 51.38    -0.243 NA
HETATM   21  C34 MK1 B 902      18.009  19.768  10.185  1.00 50.60     0.099 A 
HETATM   22  C35 MK1 B 902      16.631  19.993  10.257  1.00 49.34     0.020 A 
HETATM   23  C36 MK1 B 902      16.075  21.104   9.630  1.00 44.71     0.001 A 
ENDBRANCH  17  18
ENDBRANCH   7  17
ENDBRANCH   3   4
ENDBRANCH   2   3
BRANCH   2  24
HETATM   24  C12 MK1 B 902      10.452  22.617   4.063  1.00 21.49     0.045 C 
BRANCH  24  25
HETATM   25  C13 MK1 B 902       9.335  23.573   4.507  1.00 26.89     0.088 C 
BRANCH  25  26
HETATM   26  C14 MK1 B 902       9.811  25.036   4.570  1.00 28.67     0.036 C 
BRANCH  26  27
HETATM   27  C15 MK1 B 902       9.866  25.555   5.959  1.00 26.89    -0.022 A 
HETATM   28  C16 MK1 B 902      10.304  24.780   7.035  1.00 29.22    -0.004 A 
HETATM   29  C17 MK1 B 902      10.305  25.295   8.323  1.00 29.22    -0.000 A 
HETATM   30  C18 MK1 B 902       9.859  26.603   8.524  1.00 30.97    -0.000 A 
HETATM   31  C19 MK1 B 902       9.427  27.386   7.447  1.00 29.25    -0.000 A 
HETATM   32  C20 MK1 B 902       9.433  26.855   6.158  1.00 29.96    -0.004 A 
ENDBRANCH  26  27
ENDBRANCH  25  26
BRANCH  25  33
HETATM   33  C21 MK1 B 902       8.115  23.490   3.597  1.00 29.35     0.252 C 
HETATM   34  O3  MK1 B 902       8.206  22.999   2.462  1.00 32.66    -0.271 OA
HETATM   35  N4  MK1 B 902       7.018  24.083   4.060  1.00 31.19    -0.233 NA
BRANCH  35  36
HETATM   36  C22 MK1 B 902       5.890  24.379   3.193  1.00 29.22     0.159 C 
HETATM   37  C23 MK1 B 902       5.411  25.812   3.351  1.00 28.82     0.183 C 
HETATM   38  O4  MK1 B 902       5.582  26.243   4.693  1.00 28.32    -0.221 OA
HETATM   39  C24 MK1 B 902       3.972  25.804   2.888  1.00 32.05     0.061 C 
HETATM   40  C25 MK1 B 902       3.330  24.469   3.175  1.00 31.29    -0.022 A 
HETATM   41  C26 MK1 B 902       2.056  23.968   3.311  1.00 32.00    -0.004 A 
HETATM   42  C30 MK1 B 902       4.581  23.569   3.384  1.00 31.86    -0.001 A 
HETATM   43  C27 MK1 B 902       1.907  22.614   3.631  1.00 28.00    -0.000 A 
HETATM   44  C28 MK1 B 902       3.028  21.790   3.808  1.00 29.01    -0.000 A 
HETATM   45  C29 MK1 B 902       4.325  22.269   3.689  1.00 27.70    -0.003 A 
ENDBRANCH  35  36
ENDBRANCH  25  33
ENDBRANCH  24  25
ENDBRANCH   2  24
TORSDOF 12
ENDMDL
