MODEL 1
REMARK VINA RESULT:    -6.817      0.000      0.000
REMARK INTER + INTRA:         -14.066
REMARK INTER:                 -11.600
REMARK INTRA:                  -2.466
REMARK UNBOUND:                -2.466
REMARK  12 active torsions:
REMARK  status: ('A' for Active; 'I' for Inactive)
REMARK    1  A    between atoms: N1_2  and  C31_40 
REMARK    2  A    between atoms: C2_4  and  C3_7 
REMARK       I    between atoms: N2_5  and  C3_7 
REMARK    3  A    between atoms: N2_5  and  C4_10 
REMARK    4  A    between atoms: N3_8  and  C10_19 
REMARK       I    between atoms: N4_11  and  C21_30 
REMARK    5  A    between atoms: N4_11  and  C22_31 
REMARK    6  A    between atoms: C10_19  and  C11_20 
REMARK    7  A    between atoms: C11_20  and  C12_21 
REMARK    8  A    between atoms: C12_21  and  C13_22 
REMARK    9  A    between atoms: C13_22  and  C14_23 
REMARK   10  A    between atoms: C13_22  and  C21_30 
REMARK   11  A    between atoms: C14_23  and  C15_24 
REMARK   12  A    between atoms: C31_40  and  C32_41 
ROOT
HETATM    1  O2  MK1 B 902      11.338  46.011  25.752  1.00 15.87    -0.221 OA
HETATM    2  C11 MK1 B 902      11.568  45.277  24.587  1.00 21.68     0.174 C 
ENDROOT
BRANCH   2   3
HETATM    3  C10 MK1 B 902      11.236  43.920  25.210  1.00 20.86     0.131 C 
BRANCH   3   4
HETATM    4  N3  MK1 B 902      10.325  43.112  24.423  1.00 28.91    -0.357 N 
HETATM    5  C2  MK1 B 902      10.562  41.626  24.395  1.00 27.27     0.192 C 
HETATM    6  C1  MK1 B 902       9.379  41.142  23.580  1.00 30.30     0.282 C 
HETATM    7  N1  MK1 B 902       7.981  41.419  24.007  1.00 28.25     0.146 N 
HETATM    8  C9  MK1 B 902       7.813  42.803  24.012  1.00 27.47     0.274 C 
HETATM    9  C8  MK1 B 902       8.942  43.616  24.612  1.00 26.24     0.133 C 
BRANCH   5  10
HETATM   10  C3  MK1 B 902      11.824  41.243  23.672  1.00 28.85     0.273 C 
HETATM   11  O1  MK1 B 902      12.015  41.617  22.521  1.00 29.59    -0.269 OA
HETATM   12  N2  MK1 B 902      12.684  40.489  24.327  1.00 22.29    -0.240 NA
BRANCH  12  13
HETATM   13  C4  MK1 B 902      13.979  40.022  23.949  1.00 23.47     0.088 C 
HETATM   14  C5  MK1 B 902      13.864  38.501  23.732  1.00 27.66     0.025 C 
HETATM   15  C6  MK1 B 902      14.960  40.301  24.889  1.00 21.71     0.025 C 
HETATM   16  C7  MK1 B 902      14.438  40.544  22.658  1.00 22.75     0.025 C 
ENDBRANCH  12  13
ENDBRANCH   5  10
BRANCH   7  17
HETATM   17  C31 MK1 B 902       6.912  40.672  23.333  1.00 36.25     0.278 C 
BRANCH  17  18
HETATM   18  C32 MK1 B 902       5.500  41.252  23.190  1.00 42.75     0.030 A 
HETATM   19  C33 MK1 B 902       4.602  41.351  24.263  1.00 47.41     0.097 A 
HETATM   20  N5  MK1 B 902       3.304  41.886  24.215  1.00 51.38    -0.243 NA
HETATM   21  C34 MK1 B 902       2.999  42.328  22.929  1.00 50.60     0.099 A 
HETATM   22  C35 MK1 B 902       3.845  42.259  21.818  1.00 49.34     0.020 A 
HETATM   23  C36 MK1 B 902       5.119  41.713  21.949  1.00 44.71     0.001 A 
ENDBRANCH  17  18
ENDBRANCH   7  17
ENDBRANCH   3   4
ENDBRANCH   2   3
BRANCH   2  24
HETATM   24  C12 MK1 B 902      12.957  45.663  24.046  1.00 21.49     0.045 C 
BRANCH  24  25
HETATM   25  C13 MK1 B 902      13.735  44.704  23.134  1.00 26.89     0.088 C 
BRANCH  25  26
HETATM   26  C14 MK1 B 902      14.275  45.406  21.875  1.00 28.67     0.036 C 
BRANCH  26  27
HETATM   27  C15 MK1 B 902      13.194  45.795  20.935  1.00 26.89    -0.022 A 
HETATM   28  C16 MK1 B 902      12.932  47.125  20.598  1.00 29.22    -0.004 A 
HETATM   29  C17 MK1 B 902      11.888  47.445  19.743  1.00 29.22    -0.000 A 
HETATM   30  C18 MK1 B 902      11.101  46.413  19.227  1.00 30.97    -0.000 A 
HETATM   31  C19 MK1 B 902      11.365  45.078  19.556  1.00 29.25    -0.000 A 
HETATM   32  C20 MK1 B 902      12.419  44.772  20.416  1.00 29.96    -0.004 A 
ENDBRANCH  26  27
ENDBRANCH  25  26
BRANCH  25  33
HETATM   33  C21 MK1 B 902      14.896  44.037  23.862  1.00 29.35     0.252 C 
HETATM   34  O3  MK1 B 902      14.846  43.843  25.087  1.00 32.66    -0.271 OA
HETATM   35  N4  MK1 B 902      15.976  43.806  23.121  1.00 31.19    -0.233 NA
BRANCH  35  36
HETATM   36  C22 MK1 B 902      17.260  43.489  23.724  1.00 29.22     0.159 C 
HETATM   37  C23 MK1 B 902      18.216  44.669  23.679  1.00 28.82     0.183 C 
HETATM   38  O4  MK1 B 902      18.001  45.432  22.502  1.00 28.32    -0.221 OA
HETATM   39  C24 MK1 B 902      19.598  44.063  23.774  1.00 32.05     0.061 C 
HETATM   40  C25 MK1 B 902      19.624  42.696  23.138  1.00 31.29    -0.022 A 
HETATM   41  C26 MK1 B 902      20.567  41.838  22.622  1.00 32.00    -0.004 A 
HETATM   42  C30 MK1 B 902      18.108  42.350  23.100  1.00 31.86    -0.001 A 
HETATM   43  C27 MK1 B 902      20.131  40.628  22.070  1.00 28.00    -0.000 A 
HETATM   44  C28 MK1 B 902      18.768  40.300  22.044  1.00 29.01    -0.000 A 
HETATM   45  C29 MK1 B 902      17.792  41.150  22.545  1.00 27.70    -0.003 A 
ENDBRANCH  35  36
ENDBRANCH  25  33
ENDBRANCH  24  25
ENDBRANCH   2  24
TORSDOF 12
ENDMDL
MODEL 2
REMARK VINA RESULT:    -6.446      1.979     10.000
REMARK INTER + INTRA:         -13.434
REMARK INTER:                 -10.630
REMARK INTRA:                  -2.804
REMARK UNBOUND:                -2.466
REMARK  12 active torsions:
REMARK  status: ('A' for Active; 'I' for Inactive)
REMARK    1  A    between atoms: N1_2  and  C31_40 
REMARK    2  A    between atoms: C2_4  and  C3_7 
REMARK       I    between atoms: N2_5  and  C3_7 
REMARK    3  A    between atoms: N2_5  and  C4_10 
REMARK    4  A    between atoms: N3_8  and  C10_19 
REMARK       I    between atoms: N4_11  and  C21_30 
REMARK    5  A    between atoms: N4_11  and  C22_31 
REMARK    6  A    between atoms: C10_19  and  C11_20 
REMARK    7  A    between atoms: C11_20  and  C12_21 
REMARK    8  A    between atoms: C12_21  and  C13_22 
REMARK    9  A    between atoms: C13_22  and  C14_23 
REMARK   10  A    between atoms: C13_22  and  C21_30 
REMARK   11  A    between atoms: C14_23  and  C15_24 
REMARK   12  A    between atoms: C31_40  and  C32_41 
ROOT
HETATM    1  O2  MK1 B 902      11.736  43.852  27.446  1.00 15.87    -0.221 OA
HETATM    2  C11 MK1 B 902      12.321  43.178  26.372  1.00 21.68     0.174 C 
ENDROOT
BRANCH   2   3
HETATM    3  C10 MK1 B 902      12.813  44.442  25.666  1.00 20.86     0.131 C 
BRANCH   3   4
HETATM    4  N3  MK1 B 902      13.957  44.232  24.802  1.00 28.91    -0.357 N 
HETATM    5  C2  MK1 B 902      14.482  45.421  24.042  1.00 27.27     0.192 C 
HETATM    6  C1  MK1 B 902      15.702  44.835  23.360  1.00 30.30     0.282 C 
HETATM    7  N1  MK1 B 902      16.804  44.215  24.144  1.00 28.25     0.146 N 
HETATM    8  C9  MK1 B 902      16.268  43.121  24.823  1.00 27.47     0.274 C 
HETATM    9  C8  MK1 B 902      14.921  43.332  25.483  1.00 26.24     0.133 C 
BRANCH   5  10
HETATM   10  C3  MK1 B 902      13.534  45.909  22.981  1.00 28.85     0.273 C 
HETATM   11  O1  MK1 B 902      13.043  47.029  23.058  1.00 29.59    -0.269 OA
HETATM   12  N2  MK1 B 902      13.257  45.076  21.997  1.00 22.29    -0.240 NA
BRANCH  12  13
HETATM   13  C4  MK1 B 902      12.464  45.262  20.825  1.00 23.47     0.088 C 
HETATM   14  C5  MK1 B 902      11.020  45.519  21.295  1.00 27.66     0.025 C 
HETATM   15  C6  MK1 B 902      12.502  44.180  19.958  1.00 21.71     0.025 C 
HETATM   16  C7  MK1 B 902      12.821  46.460  20.059  1.00 22.75     0.025 C 
ENDBRANCH  12  13
ENDBRANCH   5  10
BRANCH   7  17
HETATM   17  C31 MK1 B 902      18.062  43.945  23.438  1.00 36.25     0.278 C 
BRANCH  17  18
HETATM   18  C32 MK1 B 902      18.638  42.527  23.347  1.00 42.75     0.030 A 
HETATM   19  C33 MK1 B 902      19.696  42.078  24.151  1.00 47.41     0.097 A 
HETATM   20  N5  MK1 B 902      20.263  40.792  24.139  1.00 51.38    -0.243 NA
HETATM   21  C34 MK1 B 902      19.626  39.980  23.202  1.00 50.60     0.099 A 
HETATM   22  C35 MK1 B 902      18.569  40.363  22.371  1.00 49.34     0.020 A 
HETATM   23  C36 MK1 B 902      18.063  41.659  22.444  1.00 44.71     0.001 A 
ENDBRANCH  17  18
ENDBRANCH   7  17
ENDBRANCH   3   4
ENDBRANCH   2   3
BRANCH   2  24
HETATM   24  C12 MK1 B 902      11.273  42.214  25.788  1.00 21.49     0.045 C 
BRANCH  24  25
HETATM   25  C13 MK1 B 902      10.825  42.340  24.325  1.00 26.89     0.088 C 
BRANCH  25  26
HETATM   26  C14 MK1 B 902      10.848  40.988  23.590  1.00 28.67     0.036 C 
BRANCH  26  27
HETATM   27  C15 MK1 B 902      12.229  40.500  23.342  1.00 26.89    -0.022 A 
HETATM   28  C16 MK1 B 902      12.627  39.192  23.623  1.00 29.22    -0.004 A 
HETATM   29  C17 MK1 B 902      13.937  38.790  23.410  1.00 29.22    -0.000 A 
HETATM   30  C18 MK1 B 902      14.852  39.720  22.910  1.00 30.97    -0.000 A 
HETATM   31  C19 MK1 B 902      14.455  41.030  22.620  1.00 29.25    -0.000 A 
HETATM   32  C20 MK1 B 902      13.134  41.419  22.839  1.00 29.96    -0.004 A 
ENDBRANCH  26  27
ENDBRANCH  25  26
BRANCH  25  33
HETATM   33  C21 MK1 B 902       9.430  42.943  24.203  1.00 29.35     0.252 C 
HETATM   34  O3  MK1 B 902       9.271  44.173  24.210  1.00 32.66    -0.271 OA
HETATM   35  N4  MK1 B 902       8.428  42.068  24.216  1.00 31.19    -0.233 NA
BRANCH  35  36
HETATM   36  C22 MK1 B 902       7.055  42.487  24.439  1.00 29.22     0.159 C 
HETATM   37  C23 MK1 B 902       6.694  42.493  25.915  1.00 28.82     0.183 C 
HETATM   38  O4  MK1 B 902       7.381  41.452  26.594  1.00 28.32    -0.221 OA
HETATM   39  C24 MK1 B 902       5.189  42.364  25.957  1.00 32.05     0.061 C 
HETATM   40  C25 MK1 B 902       4.692  41.558  24.782  1.00 31.29    -0.022 A 
HETATM   41  C26 MK1 B 902       3.567  40.841  24.451  1.00 32.00    -0.004 A 
HETATM   42  C30 MK1 B 902       5.913  41.637  23.822  1.00 31.86    -0.001 A 
HETATM   43  C27 MK1 B 902       3.537  40.187  23.214  1.00 28.00    -0.000 A 
HETATM   44  C28 MK1 B 902       4.627  40.263  22.335  1.00 29.01    -0.000 A 
HETATM   45  C29 MK1 B 902       5.781  40.969  22.646  1.00 27.70    -0.003 A 
ENDBRANCH  35  36
ENDBRANCH  25  33
ENDBRANCH  24  25
ENDBRANCH   2  24
TORSDOF 12
ENDMDL
MODEL 3
REMARK VINA RESULT:    -6.233      1.614      2.513
REMARK INTER + INTRA:         -13.071
REMARK INTER:                 -10.570
REMARK INTRA:                  -2.501
REMARK UNBOUND:                -2.466
REMARK  12 active torsions:
REMARK  status: ('A' for Active; 'I' for Inactive)
REMARK    1  A    between atoms: N1_2  and  C31_40 
REMARK    2  A    between atoms: C2_4  and  C3_7 
REMARK       I    between atoms: N2_5  and  C3_7 
REMARK    3  A    between atoms: N2_5  and  C4_10 
REMARK    4  A    between atoms: N3_8  and  C10_19 
REMARK       I    between atoms: N4_11  and  C21_30 
REMARK    5  A    between atoms: N4_11  and  C22_31 
REMARK    6  A    between atoms: C10_19  and  C11_20 
REMARK    7  A    between atoms: C11_20  and  C12_21 
REMARK    8  A    between atoms: C12_21  and  C13_22 
REMARK    9  A    between atoms: C13_22  and  C14_23 
REMARK   10  A    between atoms: C13_22  and  C21_30 
REMARK   11  A    between atoms: C14_23  and  C15_24 
REMARK   12  A    between atoms: C31_40  and  C32_41 
ROOT
HETATM    1  O2  MK1 B 902      13.242  46.488  25.597  1.00 15.87    -0.221 OA
HETATM    2  C11 MK1 B 902      13.065  45.466  24.662  1.00 21.68     0.174 C 
ENDROOT
BRANCH   2   3
HETATM    3  C10 MK1 B 902      11.933  44.776  25.424  1.00 20.86     0.131 C 
BRANCH   3   4
HETATM    4  N3  MK1 B 902      11.260  43.735  24.674  1.00 28.91    -0.357 N 
HETATM    5  C2  MK1 B 902      11.287  42.341  25.241  1.00 27.27     0.192 C 
HETATM    6  C1  MK1 B 902      10.415  41.591  24.254  1.00 30.30     0.282 C 
HETATM    7  N1  MK1 B 902       9.008  42.000  23.997  1.00 28.25     0.146 N 
HETATM    8  C9  MK1 B 902       9.040  43.290  23.470  1.00 27.47     0.274 C 
HETATM    9  C8  MK1 B 902       9.982  44.269  24.140  1.00 26.24     0.133 C 
BRANCH   5  10
HETATM   10  C3  MK1 B 902      12.659  41.724  25.228  1.00 28.85     0.273 C 
HETATM   11  O1  MK1 B 902      13.217  41.482  24.165  1.00 29.59    -0.269 OA
HETATM   12  N2  MK1 B 902      13.204  41.453  26.397  1.00 22.29    -0.240 NA
BRANCH  12  13
HETATM   13  C4  MK1 B 902      14.498  40.939  26.716  1.00 23.47     0.088 C 
HETATM   14  C5  MK1 B 902      14.518  40.683  28.235  1.00 27.66     0.025 C 
HETATM   15  C6  MK1 B 902      15.531  41.790  26.357  1.00 21.71     0.025 C 
HETATM   16  C7  MK1 B 902      14.771  39.628  26.119  1.00 22.75     0.025 C 
ENDBRANCH  12  13
ENDBRANCH   5  10
BRANCH   7  17
HETATM   17  C31 MK1 B 902       8.158  41.056  23.261  1.00 36.25     0.278 C 
BRANCH  17  18
HETATM   18  C32 MK1 B 902       6.662  40.922  23.570  1.00 42.75     0.030 A 
HETATM   19  C33 MK1 B 902       5.991  41.753  24.478  1.00 47.41     0.097 A 
HETATM   20  N5  MK1 B 902       4.623  41.704  24.797  1.00 51.38    -0.243 NA
HETATM   21  C34 MK1 B 902       3.984  40.696  24.077  1.00 50.60     0.099 A 
HETATM   22  C35 MK1 B 902       4.592  39.834  23.160  1.00 49.34     0.020 A 
HETATM   23  C36 MK1 B 902       5.955  39.948  22.898  1.00 44.71     0.001 A 
ENDBRANCH  17  18
ENDBRANCH   7  17
ENDBRANCH   3   4
ENDBRANCH   2   3
BRANCH   2  24
HETATM   24  C12 MK1 B 902      14.438  44.827  24.389  1.00 21.49     0.045 C 
BRANCH  24  25
HETATM   25  C13 MK1 B 902      14.952  44.660  22.952  1.00 26.89     0.088 C 
BRANCH  25  26
HETATM   26  C14 MK1 B 902      14.742  45.930  22.107  1.00 28.67     0.036 C 
BRANCH  26  27
HETATM   27  C15 MK1 B 902      13.564  45.825  21.209  1.00 26.89    -0.022 A 
HETATM   28  C16 MK1 B 902      13.021  44.598  20.821  1.00 29.22    -0.004 A 
HETATM   29  C17 MK1 B 902      11.942  44.547  19.952  1.00 29.22    -0.000 A 
HETATM   30  C18 MK1 B 902      11.409  45.745  19.469  1.00 30.97    -0.000 A 
HETATM   31  C19 MK1 B 902      11.946  46.977  19.862  1.00 29.25    -0.000 A 
HETATM   32  C20 MK1 B 902      13.031  47.012  20.738  1.00 29.96    -0.004 A 
ENDBRANCH  26  27
ENDBRANCH  25  26
BRANCH  25  33
HETATM   33  C21 MK1 B 902      16.427  44.280  22.912  1.00 29.35     0.252 C 
HETATM   34  O3  MK1 B 902      17.274  45.079  22.483  1.00 32.66    -0.271 OA
HETATM   35  N4  MK1 B 902      16.700  43.021  23.243  1.00 31.19    -0.233 NA
BRANCH  35  36
HETATM   36  C22 MK1 B 902      17.987  42.417  22.942  1.00 29.22     0.159 C 
HETATM   37  C23 MK1 B 902      17.862  40.935  22.631  1.00 28.82     0.183 C 
HETATM   38  O4  MK1 B 902      16.816  40.358  23.398  1.00 28.32    -0.221 OA
HETATM   39  C24 MK1 B 902      19.227  40.352  22.917  1.00 32.05     0.061 C 
HETATM   40  C25 MK1 B 902      19.907  41.114  24.028  1.00 31.29    -0.022 A 
HETATM   41  C26 MK1 B 902      20.926  40.897  24.926  1.00 32.00    -0.004 A 
HETATM   42  C30 MK1 B 902      19.085  42.434  24.039  1.00 31.86    -0.001 A 
HETATM   43  C27 MK1 B 902      21.219  41.905  25.851  1.00 28.00    -0.000 A 
HETATM   44  C28 MK1 B 902      20.494  43.106  25.861  1.00 29.01    -0.000 A 
HETATM   45  C29 MK1 B 902      19.453  43.348  24.975  1.00 27.70    -0.003 A 
ENDBRANCH  35  36
ENDBRANCH  25  33
ENDBRANCH  24  25
ENDBRANCH   2  24
TORSDOF 12
ENDMDL
MODEL 4
REMARK VINA RESULT:    -6.172      1.557      2.046
REMARK INTER + INTRA:         -12.967
REMARK INTER:                  -9.502
REMARK INTRA:                  -3.465
REMARK UNBOUND:                -2.466
REMARK  12 active torsions:
REMARK  status: ('A' for Active; 'I' for Inactive)
REMARK    1  A    between atoms: N1_2  and  C31_40 
REMARK    2  A    between atoms: C2_4  and  C3_7 
REMARK       I    between atoms: N2_5  and  C3_7 
REMARK    3  A    between atoms: N2_5  and  C4_10 
REMARK    4  A    between atoms: N3_8  and  C10_19 
REMARK       I    between atoms: N4_11  and  C21_30 
REMARK    5  A    between atoms: N4_11  and  C22_31 
REMARK    6  A    between atoms: C10_19  and  C11_20 
REMARK    7  A    between atoms: C11_20  and  C12_21 
REMARK    8  A    between atoms: C12_21  and  C13_22 
REMARK    9  A    between atoms: C13_22  and  C14_23 
REMARK   10  A    between atoms: C13_22  and  C21_30 
REMARK   11  A    between atoms: C14_23  and  C15_24 
REMARK   12  A    between atoms: C31_40  and  C32_41 
ROOT
HETATM    1  O2  MK1 B 902      13.754  47.297  26.713  1.00 15.87    -0.221 OA
HETATM    2  C11 MK1 B 902      13.168  46.966  25.490  1.00 21.68     0.174 C 
ENDROOT
BRANCH   2   3
HETATM    3  C10 MK1 B 902      12.444  45.726  26.013  1.00 20.86     0.131 C 
BRANCH   3   4
HETATM    4  N3  MK1 B 902      11.528  45.127  25.063  1.00 28.91    -0.357 N 
HETATM    5  C2  MK1 B 902      10.955  43.779  25.405  1.00 27.27     0.192 C 
HETATM    6  C1  MK1 B 902       9.996  43.552  24.253  1.00 30.30     0.282 C 
HETATM    7  N1  MK1 B 902       8.892  44.507  23.965  1.00 28.25     0.146 N 
HETATM    8  C9  MK1 B 902       9.475  45.734  23.651  1.00 27.47     0.274 C 
HETATM    9  C8  MK1 B 902      10.625  46.179  24.532  1.00 26.24     0.133 C 
BRANCH   5  10
HETATM   10  C3  MK1 B 902      11.982  42.679  25.391  1.00 28.85     0.273 C 
HETATM   11  O1  MK1 B 902      12.167  41.994  26.389  1.00 29.59    -0.269 OA
HETATM   12  N2  MK1 B 902      12.662  42.511  24.275  1.00 22.29    -0.240 NA
BRANCH  12  13
HETATM   13  C4  MK1 B 902      13.639  41.529  23.927  1.00 23.47     0.088 C 
HETATM   14  C5  MK1 B 902      12.883  40.209  23.685  1.00 27.66     0.025 C 
HETATM   15  C6  MK1 B 902      14.613  41.356  24.898  1.00 21.71     0.025 C 
HETATM   16  C7  MK1 B 902      14.318  41.802  22.657  1.00 22.75     0.025 C 
ENDBRANCH  12  13
ENDBRANCH   5  10
BRANCH   7  17
HETATM   17  C31 MK1 B 902       7.848  44.066  23.032  1.00 36.25     0.278 C 
BRANCH  17  18
HETATM   18  C32 MK1 B 902       6.878  42.936  23.396  1.00 42.75     0.030 A 
HETATM   19  C33 MK1 B 902       5.873  43.072  24.366  1.00 47.41     0.097 A 
HETATM   20  N5  MK1 B 902       4.938  42.092  24.738  1.00 51.38    -0.243 NA
HETATM   21  C34 MK1 B 902       5.128  40.923  24.003  1.00 50.60     0.099 A 
HETATM   22  C35 MK1 B 902       6.107  40.721  23.026  1.00 49.34     0.020 A 
HETATM   23  C36 MK1 B 902       6.998  41.745  22.714  1.00 44.71     0.001 A 
ENDBRANCH  17  18
ENDBRANCH   7  17
ENDBRANCH   3   4
ENDBRANCH   2   3
BRANCH   2  24
HETATM   24  C12 MK1 B 902      14.279  46.934  24.424  1.00 21.49     0.045 C 
BRANCH  24  25
HETATM   25  C13 MK1 B 902      14.571  45.648  23.638  1.00 26.89     0.088 C 
BRANCH  25  26
HETATM   26  C14 MK1 B 902      14.800  45.918  22.140  1.00 28.67     0.036 C 
BRANCH  26  27
HETATM   27  C15 MK1 B 902      13.537  45.890  21.359  1.00 26.89    -0.022 A 
HETATM   28  C16 MK1 B 902      12.582  44.884  21.510  1.00 29.22    -0.004 A 
HETATM   29  C17 MK1 B 902      11.433  44.877  20.733  1.00 29.22    -0.000 A 
HETATM   30  C18 MK1 B 902      11.250  45.897  19.796  1.00 30.97    -0.000 A 
HETATM   31  C19 MK1 B 902      12.202  46.912  19.647  1.00 29.25    -0.000 A 
HETATM   32  C20 MK1 B 902      13.352  46.905  20.436  1.00 29.96    -0.004 A 
ENDBRANCH  26  27
ENDBRANCH  25  26
BRANCH  25  33
HETATM   33  C21 MK1 B 902      15.776  44.899  24.193  1.00 29.35     0.252 C 
HETATM   34  O3  MK1 B 902      15.996  44.870  25.414  1.00 32.66    -0.271 OA
HETATM   35  N4  MK1 B 902      16.610  44.405  23.281  1.00 31.19    -0.233 NA
BRANCH  35  36
HETATM   36  C22 MK1 B 902      17.949  43.964  23.634  1.00 29.22     0.159 C 
HETATM   37  C23 MK1 B 902      19.016  44.915  23.119  1.00 28.82     0.183 C 
HETATM   38  O4  MK1 B 902      18.612  45.485  21.883  1.00 28.32    -0.221 OA
HETATM   39  C24 MK1 B 902      20.277  44.087  23.029  1.00 32.05     0.061 C 
HETATM   40  C25 MK1 B 902      19.946  42.648  22.717  1.00 31.29    -0.022 A 
HETATM   41  C26 MK1 B 902      20.595  41.551  22.202  1.00 32.00    -0.004 A 
HETATM   42  C30 MK1 B 902      18.440  42.593  23.098  1.00 31.86    -0.001 A 
HETATM   43  C27 MK1 B 902      19.868  40.367  22.039  1.00 28.00    -0.000 A 
HETATM   44  C28 MK1 B 902      18.512  40.302  22.392  1.00 29.01    -0.000 A 
HETATM   45  C29 MK1 B 902      17.827  41.396  22.903  1.00 27.70    -0.003 A 
ENDBRANCH  35  36
ENDBRANCH  25  33
ENDBRANCH  24  25
ENDBRANCH   2  24
TORSDOF 12
ENDMDL
MODEL 5
REMARK VINA RESULT:    -6.150      3.403      8.907
REMARK INTER + INTRA:         -12.930
REMARK INTER:                  -9.371
REMARK INTRA:                  -3.559
REMARK UNBOUND:                -2.466
REMARK  12 active torsions:
REMARK  status: ('A' for Active; 'I' for Inactive)
REMARK    1  A    between atoms: N1_2  and  C31_40 
REMARK    2  A    between atoms: C2_4  and  C3_7 
REMARK       I    between atoms: N2_5  and  C3_7 
REMARK    3  A    between atoms: N2_5  and  C4_10 
REMARK    4  A    between atoms: N3_8  and  C10_19 
REMARK       I    between atoms: N4_11  and  C21_30 
REMARK    5  A    between atoms: N4_11  and  C22_31 
REMARK    6  A    between atoms: C10_19  and  C11_20 
REMARK    7  A    between atoms: C11_20  and  C12_21 
REMARK    8  A    between atoms: C12_21  and  C13_22 
REMARK    9  A    between atoms: C13_22  and  C14_23 
REMARK   10  A    between atoms: C13_22  and  C21_30 
REMARK   11  A    between atoms: C14_23  and  C15_24 
REMARK   12  A    between atoms: C31_40  and  C32_41 
ROOT
HETATM    1  O2  MK1 B 902      11.280  42.362  27.752  1.00 15.87    -0.221 OA
HETATM    2  C11 MK1 B 902      11.975  42.263  26.546  1.00 21.68     0.174 C 
ENDROOT
BRANCH   2   3
HETATM    3  C10 MK1 B 902      13.196  43.050  27.024  1.00 20.86     0.131 C 
BRANCH   3   4
HETATM    4  N3  MK1 B 902      14.452  42.602  26.456  1.00 28.91    -0.357 N 
HETATM    5  C2  MK1 B 902      15.650  43.497  26.623  1.00 27.27     0.192 C 
HETATM    6  C1  MK1 B 902      16.750  42.656  26.007  1.00 30.30     0.282 C 
HETATM    7  N1  MK1 B 902      17.066  41.297  26.522  1.00 28.25     0.146 N 
HETATM    8  C9  MK1 B 902      15.930  40.509  26.341  1.00 27.47     0.274 C 
HETATM    9  C8  MK1 B 902      14.603  41.146  26.702  1.00 26.24     0.133 C 
BRANCH   5  10
HETATM   10  C3  MK1 B 902      15.541  44.780  25.845  1.00 28.85     0.273 C 
HETATM   11  O1  MK1 B 902      15.521  45.857  26.428  1.00 29.59    -0.269 OA
HETATM   12  N2  MK1 B 902      15.457  44.679  24.533  1.00 22.29    -0.240 NA
BRANCH  12  13
HETATM   13  C4  MK1 B 902      15.413  45.692  23.529  1.00 23.47     0.088 C 
HETATM   14  C5  MK1 B 902      16.859  46.175  23.313  1.00 27.66     0.025 C 
HETATM   15  C6  MK1 B 902      14.593  46.760  23.861  1.00 21.71     0.025 C 
HETATM   16  C7  MK1 B 902      14.990  45.198  22.215  1.00 22.75     0.025 C 
ENDBRANCH  12  13
ENDBRANCH   5  10
BRANCH   7  17
HETATM   17  C31 MK1 B 902      18.319  40.681  26.071  1.00 36.25     0.278 C 
BRANCH  17  18
HETATM   18  C32 MK1 B 902      19.006  41.125  24.774  1.00 42.75     0.030 A 
HETATM   19  C33 MK1 B 902      19.914  42.193  24.717  1.00 47.41     0.097 A 
HETATM   20  N5  MK1 B 902      20.595  42.645  23.574  1.00 51.38    -0.243 NA
HETATM   21  C34 MK1 B 902      20.254  41.879  22.460  1.00 50.60     0.099 A 
HETATM   22  C35 MK1 B 902      19.359  40.805  22.448  1.00 49.34     0.020 A 
HETATM   23  C36 MK1 B 902      18.724  40.419  23.626  1.00 44.71     0.001 A 
ENDBRANCH  17  18
ENDBRANCH   7  17
ENDBRANCH   3   4
ENDBRANCH   2   3
BRANCH   2  24
HETATM   24  C12 MK1 B 902      11.037  42.726  25.417  1.00 21.49     0.045 C 
BRANCH  24  25
HETATM   25  C13 MK1 B 902      11.557  42.876  23.980  1.00 26.89     0.088 C 
BRANCH  25  26
HETATM   26  C14 MK1 B 902      11.473  41.558  23.189  1.00 28.67     0.036 C 
BRANCH  26  27
HETATM   27  C15 MK1 B 902      12.775  40.848  23.129  1.00 26.89    -0.022 A 
HETATM   28  C16 MK1 B 902      12.889  39.468  23.314  1.00 29.22    -0.004 A 
HETATM   29  C17 MK1 B 902      14.130  38.851  23.285  1.00 29.22    -0.000 A 
HETATM   30  C18 MK1 B 902      15.266  39.636  23.070  1.00 30.97    -0.000 A 
HETATM   31  C19 MK1 B 902      15.155  41.018  22.876  1.00 29.25    -0.000 A 
HETATM   32  C20 MK1 B 902      13.899  41.624  22.907  1.00 29.96    -0.004 A 
ENDBRANCH  26  27
ENDBRANCH  25  26
BRANCH  25  33
HETATM   33  C21 MK1 B 902      10.812  43.960  23.211  1.00 29.35     0.252 C 
HETATM   34  O3  MK1 B 902       9.577  44.051  23.283  1.00 32.66    -0.271 OA
HETATM   35  N4  MK1 B 902      11.559  44.692  22.389  1.00 31.19    -0.233 NA
BRANCH  35  36
HETATM   36  C22 MK1 B 902      10.964  45.526  21.359  1.00 29.22     0.159 C 
HETATM   37  C23 MK1 B 902      11.265  45.008  19.963  1.00 28.82     0.183 C 
HETATM   38  O4  MK1 B 902      12.552  44.410  19.926  1.00 28.32    -0.221 OA
HETATM   39  C24 MK1 B 902      11.121  46.208  19.054  1.00 32.05     0.061 C 
HETATM   40  C25 MK1 B 902      11.497  47.475  19.783  1.00 31.29    -0.022 A 
HETATM   41  C26 MK1 B 902      11.887  48.752  19.456  1.00 32.00    -0.004 A 
HETATM   42  C30 MK1 B 902      11.406  47.011  21.265  1.00 31.86    -0.001 A 
HETATM   43  C27 MK1 B 902      12.190  49.639  20.494  1.00 28.00    -0.000 A 
HETATM   44  C28 MK1 B 902      12.097  49.236  21.834  1.00 29.01    -0.000 A 
HETATM   45  C29 MK1 B 902      11.719  47.950  22.196  1.00 27.70    -0.003 A 
ENDBRANCH  35  36
ENDBRANCH  25  33
ENDBRANCH  24  25
ENDBRANCH   2  24
TORSDOF 12
ENDMDL
MODEL 6
REMARK VINA RESULT:    -6.079      1.818      3.631
REMARK INTER + INTRA:         -12.810
REMARK INTER:                 -10.904
REMARK INTRA:                  -1.906
REMARK UNBOUND:                -2.466
REMARK  12 active torsions:
REMARK  status: ('A' for Active; 'I' for Inactive)
REMARK    1  A    between atoms: N1_2  and  C31_40 
REMARK    2  A    between atoms: C2_4  and  C3_7 
REMARK       I    between atoms: N2_5  and  C3_7 
REMARK    3  A    between atoms: N2_5  and  C4_10 
REMARK    4  A    between atoms: N3_8  and  C10_19 
REMARK       I    between atoms: N4_11  and  C21_30 
REMARK    5  A    between atoms: N4_11  and  C22_31 
REMARK    6  A    between atoms: C10_19  and  C11_20 
REMARK    7  A    between atoms: C11_20  and  C12_21 
REMARK    8  A    between atoms: C12_21  and  C13_22 
REMARK    9  A    between atoms: C13_22  and  C14_23 
REMARK   10  A    between atoms: C13_22  and  C21_30 
REMARK   11  A    between atoms: C14_23  and  C15_24 
REMARK   12  A    between atoms: C31_40  and  C32_41 
ROOT
HETATM    1  O2  MK1 B 902      11.416  40.729  23.524  1.00 15.87    -0.221 OA
HETATM    2  C11 MK1 B 902      10.942  41.698  24.411  1.00 21.68     0.174 C 
ENDROOT
BRANCH   2   3
HETATM    3  C10 MK1 B 902       9.796  42.160  23.512  1.00 20.86     0.131 C 
BRANCH   3   4
HETATM    4  N3  MK1 B 902       8.476  41.892  24.048  1.00 28.91    -0.357 N 
HETATM    5  C2  MK1 B 902       7.619  43.076  24.411  1.00 27.27     0.192 C 
HETATM    6  C1  MK1 B 902       6.324  42.403  24.819  1.00 30.30     0.282 C 
HETATM    7  N1  MK1 B 902       5.583  41.517  23.881  1.00 28.25     0.146 N 
HETATM    8  C9  MK1 B 902       6.415  40.439  23.582  1.00 27.47     0.274 C 
HETATM    9  C8  MK1 B 902       7.866  40.768  23.295  1.00 26.24     0.133 C 
BRANCH   5  10
HETATM   10  C3  MK1 B 902       8.146  43.846  25.590  1.00 28.85     0.273 C 
HETATM   11  O1  MK1 B 902       7.890  43.481  26.731  1.00 29.59    -0.269 OA
HETATM   12  N2  MK1 B 902       8.869  44.917  25.331  1.00 22.29    -0.240 NA
BRANCH  12  13
HETATM   13  C4  MK1 B 902       9.556  45.805  26.213  1.00 23.47     0.088 C 
HETATM   14  C5  MK1 B 902      10.413  44.933  27.150  1.00 27.66     0.025 C 
HETATM   15  C6  MK1 B 902       8.705  46.613  26.951  1.00 21.71     0.025 C 
HETATM   16  C7  MK1 B 902      10.521  46.675  25.535  1.00 22.75     0.025 C 
ENDBRANCH  12  13
ENDBRANCH   5  10
BRANCH   7  17
HETATM   17  C31 MK1 B 902       4.209  41.150  24.247  1.00 36.25     0.278 C 
BRANCH  17  18
HETATM   18  C32 MK1 B 902       3.288  40.420  23.262  1.00 42.75     0.030 A 
HETATM   19  C33 MK1 B 902       2.094  39.795  23.651  1.00 47.41     0.097 A 
HETATM   20  N5  MK1 B 902       1.192  39.127  22.807  1.00 51.38    -0.243 NA
HETATM   21  C34 MK1 B 902       1.635  39.159  21.485  1.00 50.60     0.099 A 
HETATM   22  C35 MK1 B 902       2.812  39.762  21.031  1.00 49.34     0.020 A 
HETATM   23  C36 MK1 B 902       3.654  40.406  21.934  1.00 44.71     0.001 A 
ENDBRANCH  17  18
ENDBRANCH   7  17
ENDBRANCH   3   4
ENDBRANCH   2   3
BRANCH   2  24
HETATM   24  C12 MK1 B 902      12.130  42.586  24.824  1.00 21.49     0.045 C 
BRANCH  24  25
HETATM   25  C13 MK1 B 902      13.169  43.035  23.787  1.00 26.89     0.088 C 
BRANCH  25  26
HETATM   26  C14 MK1 B 902      13.130  44.554  23.542  1.00 28.67     0.036 C 
BRANCH  26  27
HETATM   27  C15 MK1 B 902      12.581  44.901  22.207  1.00 26.89    -0.022 A 
HETATM   28  C16 MK1 B 902      12.810  44.119  21.074  1.00 29.22    -0.004 A 
HETATM   29  C17 MK1 B 902      12.308  44.500  19.839  1.00 29.22    -0.000 A 
HETATM   30  C18 MK1 B 902      11.569  45.682  19.749  1.00 30.97    -0.000 A 
HETATM   31  C19 MK1 B 902      11.330  46.465  20.885  1.00 29.25    -0.000 A 
HETATM   32  C20 MK1 B 902      11.842  46.068  22.120  1.00 29.96    -0.004 A 
ENDBRANCH  26  27
ENDBRANCH  25  26
BRANCH  25  33
HETATM   33  C21 MK1 B 902      14.585  42.636  24.184  1.00 29.35     0.252 C 
HETATM   34  O3  MK1 B 902      14.791  41.993  25.224  1.00 32.66    -0.271 OA
HETATM   35  N4  MK1 B 902      15.552  43.127  23.415  1.00 31.19    -0.233 NA
BRANCH  35  36
HETATM   36  C22 MK1 B 902      16.942  43.117  23.840  1.00 29.22     0.159 C 
HETATM   37  C23 MK1 B 902      17.610  44.466  23.633  1.00 28.82     0.183 C 
HETATM   38  O4  MK1 B 902      17.084  45.104  22.479  1.00 28.32    -0.221 OA
HETATM   39  C24 MK1 B 902      19.090  44.167  23.549  1.00 32.05     0.061 C 
HETATM   40  C25 MK1 B 902      19.323  42.803  22.949  1.00 31.29    -0.022 A 
HETATM   41  C26 MK1 B 902      20.351  42.133  22.328  1.00 32.00    -0.004 A 
HETATM   42  C30 MK1 B 902      17.924  42.147  23.132  1.00 31.86    -0.001 A 
HETATM   43  C27 MK1 B 902      20.115  40.832  21.871  1.00 28.00    -0.000 A 
HETATM   44  C28 MK1 B 902      18.862  40.226  22.044  1.00 29.01    -0.000 A 
HETATM   45  C29 MK1 B 902      17.801  40.880  22.656  1.00 27.70    -0.003 A 
ENDBRANCH  35  36
ENDBRANCH  25  33
ENDBRANCH  24  25
ENDBRANCH   2  24
TORSDOF 12
ENDMDL
MODEL 7
REMARK VINA RESULT:    -5.878      1.928      2.714
REMARK INTER + INTRA:         -12.468
REMARK INTER:                  -8.873
REMARK INTRA:                  -3.595
REMARK UNBOUND:                -2.466
REMARK  12 active torsions:
REMARK  status: ('A' for Active; 'I' for Inactive)
REMARK    1  A    between atoms: N1_2  and  C31_40 
REMARK    2  A    between atoms: C2_4  and  C3_7 
REMARK       I    between atoms: N2_5  and  C3_7 
REMARK    3  A    between atoms: N2_5  and  C4_10 
REMARK    4  A    between atoms: N3_8  and  C10_19 
REMARK       I    between atoms: N4_11  and  C21_30 
REMARK    5  A    between atoms: N4_11  and  C22_31 
REMARK    6  A    between atoms: C10_19  and  C11_20 
REMARK    7  A    between atoms: C11_20  and  C12_21 
REMARK    8  A    between atoms: C12_21  and  C13_22 
REMARK    9  A    between atoms: C13_22  and  C14_23 
REMARK   10  A    between atoms: C13_22  and  C21_30 
REMARK   11  A    between atoms: C14_23  and  C15_24 
REMARK   12  A    between atoms: C31_40  and  C32_41 
ROOT
HETATM    1  O2  MK1 B 902      14.219  46.236  28.469  1.00 15.87    -0.221 OA
HETATM    2  C11 MK1 B 902      13.518  45.988  27.288  1.00 21.68     0.174 C 
ENDROOT
BRANCH   2   3
HETATM    3  C10 MK1 B 902      13.148  44.548  27.647  1.00 20.86     0.131 C 
BRANCH   3   4
HETATM    4  N3  MK1 B 902      11.910  44.087  27.051  1.00 28.91    -0.357 N 
HETATM    5  C2  MK1 B 902      11.690  42.600  26.968  1.00 27.27     0.192 C 
HETATM    6  C1  MK1 B 902      10.286  42.529  26.401  1.00 30.30     0.282 C 
HETATM    7  N1  MK1 B 902       9.137  43.167  27.098  1.00 28.25     0.146 N 
HETATM    8  C9  MK1 B 902       9.387  44.537  27.144  1.00 27.47     0.274 C 
HETATM    9  C8  MK1 B 902      10.797  44.953  27.513  1.00 26.24     0.133 C 
BRANCH   5  10
HETATM   10  C3  MK1 B 902      12.625  41.918  26.006  1.00 28.85     0.273 C 
HETATM   11  O1  MK1 B 902      13.683  41.445  26.403  1.00 29.59    -0.269 OA
HETATM   12  N2  MK1 B 902      12.255  41.874  24.742  1.00 22.29    -0.240 NA
BRANCH  12  13
HETATM   13  C4  MK1 B 902      12.876  41.249  23.618  1.00 23.47     0.088 C 
HETATM   14  C5  MK1 B 902      14.176  42.026  23.334  1.00 27.66     0.025 C 
HETATM   15  C6  MK1 B 902      12.073  41.225  22.489  1.00 21.71     0.025 C 
HETATM   16  C7  MK1 B 902      13.318  39.876  23.881  1.00 22.75     0.025 C 
ENDBRANCH  12  13
ENDBRANCH   5  10
BRANCH   7  17
HETATM   17  C31 MK1 B 902       7.789  42.803  26.644  1.00 36.25     0.278 C 
BRANCH  17  18
HETATM   18  C32 MK1 B 902       7.500  42.490  25.171  1.00 42.75     0.030 A 
HETATM   19  C33 MK1 B 902       7.026  41.246  24.732  1.00 47.41     0.097 A 
HETATM   20  N5  MK1 B 902       6.721  40.892  23.407  1.00 51.38    -0.243 NA
HETATM   21  C34 MK1 B 902       6.949  41.963  22.544  1.00 50.60     0.099 A 
HETATM   22  C35 MK1 B 902       7.419  43.226  22.915  1.00 49.34     0.020 A 
HETATM   23  C36 MK1 B 902       7.699  43.498  24.252  1.00 44.71     0.001 A 
ENDBRANCH  17  18
ENDBRANCH   7  17
ENDBRANCH   3   4
ENDBRANCH   2   3
BRANCH   2  24
HETATM   24  C12 MK1 B 902      14.422  46.379  26.105  1.00 21.49     0.045 C 
BRANCH  24  25
HETATM   25  C13 MK1 B 902      14.718  45.376  24.982  1.00 26.89     0.088 C 
BRANCH  25  26
HETATM   26  C14 MK1 B 902      14.736  46.042  23.594  1.00 28.67     0.036 C 
BRANCH  26  27
HETATM   27  C15 MK1 B 902      13.627  45.574  22.725  1.00 26.89    -0.022 A 
HETATM   28  C16 MK1 B 902      13.769  45.412  21.346  1.00 29.22    -0.004 A 
HETATM   29  C17 MK1 B 902      12.696  45.007  20.567  1.00 29.22    -0.000 A 
HETATM   30  C18 MK1 B 902      11.468  44.766  21.189  1.00 30.97    -0.000 A 
HETATM   31  C19 MK1 B 902      11.323  44.920  22.573  1.00 29.25    -0.000 A 
HETATM   32  C20 MK1 B 902      12.413  45.327  23.342  1.00 29.96    -0.004 A 
ENDBRANCH  26  27
ENDBRANCH  25  26
BRANCH  25  33
HETATM   33  C21 MK1 B 902      16.040  44.648  25.196  1.00 29.35     0.252 C 
HETATM   34  O3  MK1 B 902      16.523  44.539  26.334  1.00 32.66    -0.271 OA
HETATM   35  N4  MK1 B 902      16.668  44.268  24.087  1.00 31.19    -0.233 NA
BRANCH  35  36
HETATM   36  C22 MK1 B 902      18.065  43.869  24.102  1.00 29.22     0.159 C 
HETATM   37  C23 MK1 B 902      18.953  44.879  23.394  1.00 28.82     0.183 C 
HETATM   38  O4  MK1 B 902      18.255  45.472  22.309  1.00 28.32    -0.221 OA
HETATM   39  C24 MK1 B 902      20.184  44.104  22.981  1.00 32.05     0.061 C 
HETATM   40  C25 MK1 B 902      19.834  42.664  22.695  1.00 31.29    -0.022 A 
HETATM   41  C26 MK1 B 902      20.380  41.611  22.000  1.00 32.00    -0.004 A 
HETATM   42  C30 MK1 B 902      18.460  42.537  23.412  1.00 31.86    -0.001 A 
HETATM   43  C27 MK1 B 902      19.671  40.405  21.961  1.00 28.00    -0.000 A 
HETATM   44  C28 MK1 B 902      18.437  40.274  22.616  1.00 29.01    -0.000 A 
HETATM   45  C29 MK1 B 902      17.856  41.323  23.315  1.00 27.70    -0.003 A 
ENDBRANCH  35  36
ENDBRANCH  25  33
ENDBRANCH  24  25
ENDBRANCH   2  24
TORSDOF 12
ENDMDL
MODEL 8
REMARK VINA RESULT:    -5.718      3.591      6.644
REMARK INTER + INTRA:         -12.196
REMARK INTER:                  -9.048
REMARK INTRA:                  -3.148
REMARK UNBOUND:                -2.466
REMARK  12 active torsions:
REMARK  status: ('A' for Active; 'I' for Inactive)
REMARK    1  A    between atoms: N1_2  and  C31_40 
REMARK    2  A    between atoms: C2_4  and  C3_7 
REMARK       I    between atoms: N2_5  and  C3_7 
REMARK    3  A    between atoms: N2_5  and  C4_10 
REMARK    4  A    between atoms: N3_8  and  C10_19 
REMARK       I    between atoms: N4_11  and  C21_30 
REMARK    5  A    between atoms: N4_11  and  C22_31 
REMARK    6  A    between atoms: C10_19  and  C11_20 
REMARK    7  A    between atoms: C11_20  and  C12_21 
REMARK    8  A    between atoms: C12_21  and  C13_22 
REMARK    9  A    between atoms: C13_22  and  C14_23 
REMARK   10  A    between atoms: C13_22  and  C21_30 
REMARK   11  A    between atoms: C14_23  and  C15_24 
REMARK   12  A    between atoms: C31_40  and  C32_41 
ROOT
HETATM    1  O2  MK1 B 902       9.494  44.602  22.490  1.00 15.87    -0.221 OA
HETATM    2  C11 MK1 B 902       9.365  44.012  23.749  1.00 21.68     0.174 C 
ENDROOT
BRANCH   2   3
HETATM    3  C10 MK1 B 902       7.861  44.265  23.867  1.00 20.86     0.131 C 
BRANCH   3   4
HETATM    4  N3  MK1 B 902       7.209  43.492  24.905  1.00 28.91    -0.357 N 
HETATM    5  C2  MK1 B 902       7.502  42.016  24.960  1.00 27.27     0.192 C 
HETATM    6  C1  MK1 B 902       6.741  41.599  26.203  1.00 30.30     0.282 C 
HETATM    7  N1  MK1 B 902       7.023  42.215  27.527  1.00 28.25     0.146 N 
HETATM    8  C9  MK1 B 902       6.733  43.574  27.424  1.00 27.47     0.274 C 
HETATM    9  C8  MK1 B 902       7.213  44.272  26.168  1.00 26.24     0.133 C 
BRANCH   5  10
HETATM   10  C3  MK1 B 902       6.944  41.260  23.785  1.00 28.85     0.273 C 
HETATM   11  O1  MK1 B 902       7.677  40.921  22.864  1.00 29.59    -0.269 OA
HETATM   12  N2  MK1 B 902       5.652  41.002  23.799  1.00 22.29    -0.240 NA
BRANCH  12  13
HETATM   13  C4  MK1 B 902       4.848  40.258  22.883  1.00 23.47     0.088 C 
HETATM   14  C5  MK1 B 902       5.533  38.892  22.691  1.00 27.66     0.025 C 
HETATM   15  C6  MK1 B 902       4.681  40.889  21.660  1.00 21.71     0.025 C 
HETATM   16  C7  MK1 B 902       3.516  39.932  23.402  1.00 22.75     0.025 C 
ENDBRANCH  12  13
ENDBRANCH   5  10
BRANCH   7  17
HETATM   17  C31 MK1 B 902       6.459  41.554  28.710  1.00 36.25     0.278 C 
BRANCH  17  18
HETATM   18  C32 MK1 B 902       7.296  41.330  29.975  1.00 42.75     0.030 A 
HETATM   19  C33 MK1 B 902       7.191  42.140  31.115  1.00 47.41     0.097 A 
HETATM   20  N5  MK1 B 902       7.907  41.986  32.314  1.00 51.38    -0.243 NA
HETATM   21  C34 MK1 B 902       8.766  40.891  32.239  1.00 50.60     0.099 A 
HETATM   22  C35 MK1 B 902       8.919  40.045  31.137  1.00 49.34     0.020 A 
HETATM   23  C36 MK1 B 902       8.171  40.265  29.983  1.00 44.71     0.001 A 
ENDBRANCH  17  18
ENDBRANCH   7  17
ENDBRANCH   3   4
ENDBRANCH   2   3
BRANCH   2  24
HETATM   24  C12 MK1 B 902      10.422  44.636  24.677  1.00 21.49     0.045 C 
BRANCH  24  25
HETATM   25  C13 MK1 B 902      11.523  43.768  25.304  1.00 26.89     0.088 C 
BRANCH  25  26
HETATM   26  C14 MK1 B 902      10.954  42.521  26.005  1.00 28.67     0.036 C 
BRANCH  26  27
HETATM   27  C15 MK1 B 902      11.113  42.577  27.479  1.00 26.89    -0.022 A 
HETATM   28  C16 MK1 B 902      12.043  41.793  28.166  1.00 29.22    -0.004 A 
HETATM   29  C17 MK1 B 902      12.132  41.851  29.549  1.00 29.22    -0.000 A 
HETATM   30  C18 MK1 B 902      11.274  42.708  30.243  1.00 30.97    -0.000 A 
HETATM   31  C19 MK1 B 902      10.346  43.501  29.557  1.00 29.25    -0.000 A 
HETATM   32  C20 MK1 B 902      10.269  43.432  28.166  1.00 29.96    -0.004 A 
ENDBRANCH  26  27
ENDBRANCH  25  26
BRANCH  25  33
HETATM   33  C21 MK1 B 902      12.558  43.327  24.276  1.00 29.35     0.252 C 
HETATM   34  O3  MK1 B 902      12.663  43.918  23.191  1.00 32.66    -0.271 OA
HETATM   35  N4  MK1 B 902      13.226  42.217  24.581  1.00 31.19    -0.233 NA
BRANCH  35  36
HETATM   36  C22 MK1 B 902      13.993  41.492  23.581  1.00 29.22     0.159 C 
HETATM   37  C23 MK1 B 902      14.053  40.004  23.880  1.00 28.82     0.183 C 
HETATM   38  O4  MK1 B 902      14.070  39.783  25.282  1.00 28.32    -0.221 OA
HETATM   39  C24 MK1 B 902      15.289  39.505  23.165  1.00 32.05     0.061 C 
HETATM   40  C25 MK1 B 902      16.341  40.584  23.108  1.00 31.29    -0.022 A 
HETATM   41  C26 MK1 B 902      17.702  40.661  22.925  1.00 32.00    -0.004 A 
HETATM   42  C30 MK1 B 902      15.490  41.854  23.394  1.00 31.86    -0.001 A 
HETATM   43  C27 MK1 B 902      18.310  41.920  22.988  1.00 28.00    -0.000 A 
HETATM   44  C28 MK1 B 902      17.550  43.073  23.231  1.00 29.01    -0.000 A 
HETATM   45  C29 MK1 B 902      16.177  43.026  23.432  1.00 27.70    -0.003 A 
ENDBRANCH  35  36
ENDBRANCH  25  33
ENDBRANCH  24  25
ENDBRANCH   2  24
TORSDOF 12
ENDMDL
MODEL 9
REMARK VINA RESULT:    -5.707      2.376      9.792
REMARK INTER + INTRA:         -12.176
REMARK INTER:                  -9.497
REMARK INTRA:                  -2.679
REMARK UNBOUND:                -2.466
REMARK  12 active torsions:
REMARK  status: ('A' for Active; 'I' for Inactive)
REMARK    1  A    between atoms: N1_2  and  C31_40 
REMARK    2  A    between atoms: C2_4  and  C3_7 
REMARK       I    between atoms: N2_5  and  C3_7 
REMARK    3  A    between atoms: N2_5  and  C4_10 
REMARK    4  A    between atoms: N3_8  and  C10_19 
REMARK       I    between atoms: N4_11  and  C21_30 
REMARK    5  A    between atoms: N4_11  and  C22_31 
REMARK    6  A    between atoms: C10_19  and  C11_20 
REMARK    7  A    between atoms: C11_20  and  C12_21 
REMARK    8  A    between atoms: C12_21  and  C13_22 
REMARK    9  A    between atoms: C13_22  and  C14_23 
REMARK   10  A    between atoms: C13_22  and  C21_30 
REMARK   11  A    between atoms: C14_23  and  C15_24 
REMARK   12  A    between atoms: C31_40  and  C32_41 
ROOT
HETATM    1  O2  MK1 B 902      12.784  42.464  27.483  1.00 15.87    -0.221 OA
HETATM    2  C11 MK1 B 902      12.650  41.986  26.178  1.00 21.68     0.174 C 
ENDROOT
BRANCH   2   3
HETATM    3  C10 MK1 B 902      13.805  40.989  26.277  1.00 20.86     0.131 C 
BRANCH   3   4
HETATM    4  N3  MK1 B 902      14.933  41.299  25.421  1.00 28.91    -0.357 N 
HETATM    5  C2  MK1 B 902      16.237  41.648  26.088  1.00 27.27     0.192 C 
HETATM    6  C1  MK1 B 902      17.161  41.797  24.896  1.00 30.30     0.282 C 
HETATM    7  N1  MK1 B 902      17.373  40.681  23.936  1.00 28.25     0.146 N 
HETATM    8  C9  MK1 B 902      16.141  40.401  23.345  1.00 27.47     0.274 C 
HETATM    9  C8  MK1 B 902      14.943  40.361  24.271  1.00 26.24     0.133 C 
BRANCH   5  10
HETATM   10  C3  MK1 B 902      16.192  42.960  26.822  1.00 28.85     0.273 C 
HETATM   11  O1  MK1 B 902      16.321  42.993  28.039  1.00 29.59    -0.269 OA
HETATM   12  N2  MK1 B 902      15.996  44.044  26.097  1.00 22.29    -0.240 NA
BRANCH  12  13
HETATM   13  C4  MK1 B 902      15.972  45.419  26.479  1.00 23.47     0.088 C 
HETATM   14  C5  MK1 B 902      15.553  46.225  25.235  1.00 27.66     0.025 C 
HETATM   15  C6  MK1 B 902      17.188  45.877  26.962  1.00 21.71     0.025 C 
HETATM   16  C7  MK1 B 902      14.948  45.732  27.481  1.00 22.75     0.025 C 
ENDBRANCH  12  13
ENDBRANCH   5  10
BRANCH   7  17
HETATM   17  C31 MK1 B 902      18.492  40.807  22.995  1.00 36.25     0.278 C 
BRANCH  17  18
HETATM   18  C32 MK1 B 902      19.760  41.586  23.362  1.00 42.75     0.030 A 
HETATM   19  C33 MK1 B 902      20.152  42.762  22.706  1.00 47.41     0.097 A 
HETATM   20  N5  MK1 B 902      21.285  43.539  22.997  1.00 51.38    -0.243 NA
HETATM   21  C34 MK1 B 902      22.004  42.987  24.057  1.00 50.60     0.099 A 
HETATM   22  C35 MK1 B 902      21.670  41.821  24.752  1.00 49.34     0.020 A 
HETATM   23  C36 MK1 B 902      20.527  41.107  24.401  1.00 44.71     0.001 A 
ENDBRANCH  17  18
ENDBRANCH   7  17
ENDBRANCH   3   4
ENDBRANCH   2   3
BRANCH   2  24
HETATM   24  C12 MK1 B 902      12.633  43.196  25.227  1.00 21.49     0.045 C 
BRANCH  24  25
HETATM   25  C13 MK1 B 902      11.903  43.120  23.878  1.00 26.89     0.088 C 
BRANCH  25  26
HETATM   26  C14 MK1 B 902      12.869  42.870  22.706  1.00 28.67     0.036 C 
BRANCH  26  27
HETATM   27  C15 MK1 B 902      13.012  44.056  21.825  1.00 26.89    -0.022 A 
HETATM   28  C16 MK1 B 902      12.274  44.216  20.651  1.00 29.22    -0.004 A 
HETATM   29  C17 MK1 B 902      12.467  45.324  19.840  1.00 29.22    -0.000 A 
HETATM   30  C18 MK1 B 902      13.415  46.277  20.218  1.00 30.97    -0.000 A 
HETATM   31  C19 MK1 B 902      14.152  46.125  21.399  1.00 29.25    -0.000 A 
HETATM   32  C20 MK1 B 902      13.946  45.005  22.205  1.00 29.96    -0.004 A 
ENDBRANCH  26  27
ENDBRANCH  25  26
BRANCH  25  33
HETATM   33  C21 MK1 B 902      10.827  42.042  23.869  1.00 29.35     0.252 C 
HETATM   34  O3  MK1 B 902      11.024  40.957  23.301  1.00 32.66    -0.271 OA
HETATM   35  N4  MK1 B 902       9.657  42.399  24.393  1.00 31.19    -0.233 NA
BRANCH  35  36
HETATM   36  C22 MK1 B 902       8.452  41.620  24.166  1.00 29.22     0.159 C 
HETATM   37  C23 MK1 B 902       7.715  42.062  22.913  1.00 28.82     0.183 C 
HETATM   38  O4  MK1 B 902       7.866  43.460  22.721  1.00 28.32    -0.221 OA
HETATM   39  C24 MK1 B 902       6.283  41.621  23.118  1.00 32.05     0.061 C 
HETATM   40  C25 MK1 B 902       5.924  41.647  24.583  1.00 31.29    -0.022 A 
HETATM   41  C26 MK1 B 902       4.779  41.696  25.343  1.00 32.00    -0.004 A 
HETATM   42  C30 MK1 B 902       7.333  41.662  25.241  1.00 31.86    -0.001 A 
HETATM   43  C27 MK1 B 902       4.908  41.745  26.735  1.00 28.00    -0.000 A 
HETATM   44  C28 MK1 B 902       6.174  41.744  27.340  1.00 29.01    -0.000 A 
HETATM   45  C29 MK1 B 902       7.348  41.708  26.600  1.00 27.70    -0.003 A 
ENDBRANCH  35  36
ENDBRANCH  25  33
ENDBRANCH  24  25
ENDBRANCH   2  24
TORSDOF 12
ENDMDL
