MODEL 1
REMARK VINA RESULT:   -10.569      0.000      0.000
REMARK INTER + INTRA:         -19.703
REMARK INTER:                 -17.983
REMARK INTRA:                  -1.719
REMARK UNBOUND:                -1.719
REMARK  12 active torsions:
REMARK  status: ('A' for Active; 'I' for Inactive)
REMARK    1  A    between atoms: N1_2  and  C31_40 
REMARK    2  A    between atoms: C2_4  and  C3_7 
REMARK       I    between atoms: N2_5  and  C3_7 
REMARK    3  A    between atoms: N2_5  and  C4_10 
REMARK    4  A    between atoms: N3_8  and  C10_19 
REMARK       I    between atoms: N4_11  and  C21_30 
REMARK    5  A    between atoms: N4_11  and  C22_31 
REMARK    6  A    between atoms: C10_19  and  C11_20 
REMARK    7  A    between atoms: C11_20  and  C12_21 
REMARK    8  A    between atoms: C12_21  and  C13_22 
REMARK    9  A    between atoms: C13_22  and  C14_23 
REMARK   10  A    between atoms: C13_22  and  C21_30 
REMARK   11  A    between atoms: C14_23  and  C15_24 
REMARK   12  A    between atoms: C31_40  and  C32_41 
ROOT
HETATM    1  O2  MK1 B 902      14.986  24.315   4.657  1.00 15.87    -0.221 OA
HETATM    2  C11 MK1 B 902      13.816  23.810   5.225  1.00 21.68     0.174 C 
ENDROOT
BRANCH   2   3
HETATM    3  C10 MK1 B 902      12.913  24.928   4.703  1.00 20.86     0.131 C 
BRANCH   3   4
HETATM    4  N3  MK1 B 902      11.559  24.508   4.405  1.00 28.91    -0.357 N 
HETATM    5  C2  MK1 B 902      10.435  25.293   5.026  1.00 27.27     0.192 C 
HETATM    6  C1  MK1 B 902       9.219  24.630   4.408  1.00 30.30     0.282 C 
HETATM    7  N1  MK1 B 902       9.035  24.574   2.933  1.00 28.25     0.146 N 
HETATM    8  C9  MK1 B 902      10.095  23.835   2.409  1.00 27.47     0.274 C 
HETATM    9  C8  MK1 B 902      11.470  24.139   2.970  1.00 26.24     0.133 C 
BRANCH   5  10
HETATM   10  C3  MK1 B 902      10.356  25.130   6.519  1.00 28.85     0.273 C 
HETATM   11  O1  MK1 B 902      10.217  24.017   7.013  1.00 29.59    -0.269 OA
HETATM   12  N2  MK1 B 902      10.429  26.227   7.246  1.00 22.29    -0.240 NA
BRANCH  12  13
HETATM   13  C4  MK1 B 902      10.453  26.397   8.663  1.00 23.47     0.088 C 
HETATM   14  C5  MK1 B 902      10.031  27.851   8.949  1.00 27.66     0.025 C 
HETATM   15  C6  MK1 B 902      11.692  26.136   9.227  1.00 21.71     0.025 C 
HETATM   16  C7  MK1 B 902       9.461  25.581   9.369  1.00 22.75     0.025 C 
ENDBRANCH  12  13
ENDBRANCH   5  10
BRANCH   7  17
HETATM   17  C31 MK1 B 902       7.710  24.185   2.435  1.00 36.25     0.278 C 
BRANCH  17  18
HETATM   18  C32 MK1 B 902       6.444  24.415   3.269  1.00 42.75     0.030 A 
HETATM   19  C33 MK1 B 902       6.053  25.680   3.732  1.00 47.41     0.097 A 
HETATM   20  N5  MK1 B 902       4.901  25.972   4.482  1.00 51.38    -0.243 NA
HETATM   21  C34 MK1 B 902       4.161  24.815   4.721  1.00 50.60     0.099 A 
HETATM   22  C35 MK1 B 902       4.494  23.527   4.291  1.00 49.34     0.020 A 
HETATM   23  C36 MK1 B 902       5.655  23.321   3.550  1.00 44.71     0.001 A 
ENDBRANCH  17  18
ENDBRANCH   7  17
ENDBRANCH   3   4
ENDBRANCH   2   3
BRANCH   2  24
HETATM   24  C12 MK1 B 902      14.087  23.544   6.717  1.00 21.49     0.045 C 
BRANCH  24  25
HETATM   25  C13 MK1 B 902      15.257  22.649   7.152  1.00 26.89     0.088 C 
BRANCH  25  26
HETATM   26  C14 MK1 B 902      15.313  22.465   8.679  1.00 28.67     0.036 C 
BRANCH  26  27
HETATM   27  C15 MK1 B 902      16.495  21.677   9.112  1.00 26.89    -0.022 A 
HETATM   28  C16 MK1 B 902      17.805  22.071   8.832  1.00 29.22    -0.004 A 
HETATM   29  C17 MK1 B 902      18.878  21.285   9.224  1.00 29.22    -0.000 A 
HETATM   30  C18 MK1 B 902      18.625  20.091   9.904  1.00 30.97    -0.000 A 
HETATM   31  C19 MK1 B 902      17.313  19.698  10.194  1.00 29.25    -0.000 A 
HETATM   32  C20 MK1 B 902      16.244  20.499   9.794  1.00 29.96    -0.004 A 
ENDBRANCH  26  27
ENDBRANCH  25  26
BRANCH  25  33
HETATM   33  C21 MK1 B 902      15.205  21.277   6.491  1.00 29.35     0.252 C 
HETATM   34  O3  MK1 B 902      14.154  20.618   6.485  1.00 32.66    -0.271 OA
HETATM   35  N4  MK1 B 902      16.371  20.812   6.052  1.00 31.19    -0.233 NA
BRANCH  35  36
HETATM   36  C22 MK1 B 902      16.550  19.411   5.707  1.00 29.22     0.159 C 
HETATM   37  C23 MK1 B 902      17.924  18.898   6.105  1.00 28.82     0.183 C 
HETATM   38  O4  MK1 B 902      18.891  19.931   5.978  1.00 28.32    -0.221 OA
HETATM   39  C24 MK1 B 902      18.178  17.707   5.209  1.00 32.05     0.061 C 
HETATM   40  C25 MK1 B 902      17.497  17.891   3.875  1.00 31.29    -0.022 A 
HETATM   41  C26 MK1 B 902      17.612  17.383   2.603  1.00 32.00    -0.004 A 
HETATM   42  C30 MK1 B 902      16.463  19.003   4.213  1.00 31.86    -0.001 A 
HETATM   43  C27 MK1 B 902      16.763  17.883   1.610  1.00 28.00    -0.000 A 
HETATM   44  C28 MK1 B 902      15.817  18.876   1.906  1.00 29.01    -0.000 A 
HETATM   45  C29 MK1 B 902      15.685  19.416   3.177  1.00 27.70    -0.003 A 
ENDBRANCH  35  36
ENDBRANCH  25  33
ENDBRANCH  24  25
ENDBRANCH   2  24
TORSDOF 12
ENDMDL
MODEL 2
REMARK VINA RESULT:   -10.319      1.333      4.282
REMARK INTER + INTRA:         -19.277
REMARK INTER:                 -17.463
REMARK INTRA:                  -1.814
REMARK UNBOUND:                -1.719
REMARK  12 active torsions:
REMARK  status: ('A' for Active; 'I' for Inactive)
REMARK    1  A    between atoms: N1_2  and  C31_40 
REMARK    2  A    between atoms: C2_4  and  C3_7 
REMARK       I    between atoms: N2_5  and  C3_7 
REMARK    3  A    between atoms: N2_5  and  C4_10 
REMARK    4  A    between atoms: N3_8  and  C10_19 
REMARK       I    between atoms: N4_11  and  C21_30 
REMARK    5  A    between atoms: N4_11  and  C22_31 
REMARK    6  A    between atoms: C10_19  and  C11_20 
REMARK    7  A    between atoms: C11_20  and  C12_21 
REMARK    8  A    between atoms: C12_21  and  C13_22 
REMARK    9  A    between atoms: C13_22  and  C14_23 
REMARK   10  A    between atoms: C13_22  and  C21_30 
REMARK   11  A    between atoms: C14_23  and  C15_24 
REMARK   12  A    between atoms: C31_40  and  C32_41 
ROOT
HETATM    1  O2  MK1 B 902      13.521  24.701   6.891  1.00 15.87    -0.221 OA
HETATM    2  C11 MK1 B 902      13.642  23.832   5.805  1.00 21.68     0.174 C 
ENDROOT
BRANCH   2   3
HETATM    3  C10 MK1 B 902      12.879  24.726   4.827  1.00 20.86     0.131 C 
BRANCH   3   4
HETATM    4  N3  MK1 B 902      11.532  24.275   4.537  1.00 28.91    -0.357 N 
HETATM    5  C2  MK1 B 902      10.393  25.128   5.027  1.00 27.27     0.192 C 
HETATM    6  C1  MK1 B 902       9.194  24.398   4.452  1.00 30.30     0.282 C 
HETATM    7  N1  MK1 B 902       9.056  24.170   2.989  1.00 28.25     0.146 N 
HETATM    8  C9  MK1 B 902      10.129  23.375   2.589  1.00 27.47     0.274 C 
HETATM    9  C8  MK1 B 902      11.486  23.741   3.153  1.00 26.24     0.133 C 
BRANCH   5  10
HETATM   10  C3  MK1 B 902      10.266  25.141   6.526  1.00 28.85     0.273 C 
HETATM   11  O1  MK1 B 902      10.209  24.088   7.150  1.00 29.59    -0.269 OA
HETATM   12  N2  MK1 B 902      10.208  26.320   7.111  1.00 22.29    -0.240 NA
BRANCH  12  13
HETATM   13  C4  MK1 B 902      10.157  26.663   8.496  1.00 23.47     0.088 C 
HETATM   14  C5  MK1 B 902       9.041  25.811   9.130  1.00 27.66     0.025 C 
HETATM   15  C6  MK1 B 902       9.921  28.010   8.721  1.00 21.71     0.025 C 
HETATM   16  C7  MK1 B 902      11.367  26.293   9.237  1.00 22.75     0.025 C 
ENDBRANCH  12  13
ENDBRANCH   5  10
BRANCH   7  17
HETATM   17  C31 MK1 B 902       7.746  23.727   2.499  1.00 36.25     0.278 C 
BRANCH  17  18
HETATM   18  C32 MK1 B 902       6.449  24.118   3.217  1.00 42.75     0.030 A 
HETATM   19  C33 MK1 B 902       6.041  25.450   3.386  1.00 47.41     0.097 A 
HETATM   20  N5  MK1 B 902       4.862  25.884   4.014  1.00 51.38    -0.243 NA
HETATM   21  C34 MK1 B 902       4.113  24.799   4.466  1.00 50.60     0.099 A 
HETATM   22  C35 MK1 B 902       4.462  23.452   4.331  1.00 49.34     0.020 A 
HETATM   23  C36 MK1 B 902       5.650  23.103   3.694  1.00 44.71     0.001 A 
ENDBRANCH  17  18
ENDBRANCH   7  17
ENDBRANCH   3   4
ENDBRANCH   2   3
BRANCH   2  24
HETATM   24  C12 MK1 B 902      13.166  22.439   6.254  1.00 21.49     0.045 C 
BRANCH  24  25
HETATM   25  C13 MK1 B 902      14.176  21.306   6.490  1.00 26.89     0.088 C 
BRANCH  25  26
HETATM   26  C14 MK1 B 902      15.272  21.268   5.411  1.00 28.67     0.036 C 
BRANCH  26  27
HETATM   27  C15 MK1 B 902      15.138  20.098   4.507  1.00 26.89    -0.022 A 
HETATM   28  C16 MK1 B 902      15.137  18.782   4.975  1.00 29.22    -0.004 A 
HETATM   29  C17 MK1 B 902      15.046  17.717   4.092  1.00 29.22    -0.000 A 
HETATM   30  C18 MK1 B 902      14.957  17.985   2.723  1.00 30.97    -0.000 A 
HETATM   31  C19 MK1 B 902      14.949  19.303   2.251  1.00 29.25    -0.000 A 
HETATM   32  C20 MK1 B 902      15.041  20.363   3.152  1.00 29.96    -0.004 A 
ENDBRANCH  26  27
ENDBRANCH  25  26
BRANCH  25  33
HETATM   33  C21 MK1 B 902      14.836  21.404   7.860  1.00 29.35     0.252 C 
HETATM   34  O3  MK1 B 902      14.467  22.259   8.680  1.00 32.66    -0.271 OA
HETATM   35  N4  MK1 B 902      15.886  20.608   8.045  1.00 31.19    -0.233 NA
BRANCH  35  36
HETATM   36  C22 MK1 B 902      16.811  20.812   9.146  1.00 29.22     0.159 C 
HETATM   37  C23 MK1 B 902      18.168  21.299   8.667  1.00 28.82     0.183 C 
HETATM   38  O4  MK1 B 902      18.474  20.736   7.400  1.00 28.32    -0.221 OA
HETATM   39  C24 MK1 B 902      19.138  20.911   9.761  1.00 32.05     0.061 C 
HETATM   40  C25 MK1 B 902      18.684  19.648  10.449  1.00 31.29    -0.022 A 
HETATM   41  C26 MK1 B 902      19.248  18.660  11.222  1.00 32.00    -0.004 A 
HETATM   42  C30 MK1 B 902      17.188  19.593  10.029  1.00 31.86    -0.001 A 
HETATM   43  C27 MK1 B 902      18.435  17.599  11.639  1.00 28.00    -0.000 A 
HETATM   44  C28 MK1 B 902      17.081  17.547  11.277  1.00 29.01    -0.000 A 
HETATM   45  C29 MK1 B 902      16.487  18.523  10.488  1.00 27.70    -0.003 A 
ENDBRANCH  35  36
ENDBRANCH  25  33
ENDBRANCH  24  25
ENDBRANCH   2  24
TORSDOF 12
ENDMDL
MODEL 3
REMARK VINA RESULT:   -10.217      2.024     10.410
REMARK INTER + INTRA:         -19.104
REMARK INTER:                 -17.142
REMARK INTRA:                  -1.961
REMARK UNBOUND:                -1.719
REMARK  12 active torsions:
REMARK  status: ('A' for Active; 'I' for Inactive)
REMARK    1  A    between atoms: N1_2  and  C31_40 
REMARK    2  A    between atoms: C2_4  and  C3_7 
REMARK       I    between atoms: N2_5  and  C3_7 
REMARK    3  A    between atoms: N2_5  and  C4_10 
REMARK    4  A    between atoms: N3_8  and  C10_19 
REMARK       I    between atoms: N4_11  and  C21_30 
REMARK    5  A    between atoms: N4_11  and  C22_31 
REMARK    6  A    between atoms: C10_19  and  C11_20 
REMARK    7  A    between atoms: C11_20  and  C12_21 
REMARK    8  A    between atoms: C12_21  and  C13_22 
REMARK    9  A    between atoms: C13_22  and  C14_23 
REMARK   10  A    between atoms: C13_22  and  C21_30 
REMARK   11  A    between atoms: C14_23  and  C15_24 
REMARK   12  A    between atoms: C31_40  and  C32_41 
ROOT
HETATM    1  O2  MK1 B 902      13.959  22.085   3.406  1.00 15.87    -0.221 OA
HETATM    2  C11 MK1 B 902      13.594  22.892   4.486  1.00 21.68     0.174 C 
ENDROOT
BRANCH   2   3
HETATM    3  C10 MK1 B 902      14.988  22.920   5.115  1.00 20.86     0.131 C 
BRANCH   3   4
HETATM    4  N3  MK1 B 902      15.123  22.092   6.296  1.00 28.91    -0.357 N 
HETATM    5  C2  MK1 B 902      16.060  20.916   6.216  1.00 27.27     0.192 C 
HETATM    6  C1  MK1 B 902      16.006  20.384   7.635  1.00 30.30     0.282 C 
HETATM    7  N1  MK1 B 902      16.372  21.239   8.797  1.00 28.25     0.146 N 
HETATM    8  C9  MK1 B 902      15.474  22.305   8.827  1.00 27.47     0.274 C 
HETATM    9  C8  MK1 B 902      15.162  22.962   7.498  1.00 26.24     0.133 C 
BRANCH   5  10
HETATM   10  C3  MK1 B 902      15.577  19.838   5.286  1.00 28.85     0.273 C 
HETATM   11  O1  MK1 B 902      14.578  19.184   5.563  1.00 29.59    -0.269 OA
HETATM   12  N2  MK1 B 902      16.282  19.632   4.191  1.00 22.29    -0.240 NA
BRANCH  12  13
HETATM   13  C4  MK1 B 902      16.050  18.746   3.096  1.00 23.47     0.088 C 
HETATM   14  C5  MK1 B 902      17.425  18.211   2.652  1.00 27.66     0.025 C 
HETATM   15  C6  MK1 B 902      15.400  19.347   2.030  1.00 21.71     0.025 C 
HETATM   16  C7  MK1 B 902      15.290  17.547   3.463  1.00 22.75     0.025 C 
ENDBRANCH  12  13
ENDBRANCH   5  10
BRANCH   7  17
HETATM   17  C31 MK1 B 902      16.574  20.569  10.087  1.00 36.25     0.278 C 
BRANCH  17  18
HETATM   18  C32 MK1 B 902      17.165  19.156  10.169  1.00 42.75     0.030 A 
HETATM   19  C33 MK1 B 902      18.370  18.794   9.550  1.00 47.41     0.097 A 
HETATM   20  N5  MK1 B 902      18.981  17.530   9.596  1.00 51.38    -0.243 NA
HETATM   21  C34 MK1 B 902      18.225  16.642  10.360  1.00 50.60     0.099 A 
HETATM   22  C35 MK1 B 902      17.019  16.938  11.002  1.00 49.34     0.020 A 
HETATM   23  C36 MK1 B 902      16.477  18.217  10.907  1.00 44.71     0.001 A 
ENDBRANCH  17  18
ENDBRANCH   7  17
ENDBRANCH   3   4
ENDBRANCH   2   3
BRANCH   2  24
HETATM   24  C12 MK1 B 902      12.358  22.263   5.153  1.00 21.49     0.045 C 
BRANCH  24  25
HETATM   25  C13 MK1 B 902      11.048  23.054   5.276  1.00 26.89     0.088 C 
BRANCH  25  26
HETATM   26  C14 MK1 B 902      11.290  24.570   5.392  1.00 28.67     0.036 C 
BRANCH  26  27
HETATM   27  C15 MK1 B 902      11.298  25.037   6.801  1.00 26.89    -0.022 A 
HETATM   28  C16 MK1 B 902      12.463  25.450   7.450  1.00 29.22    -0.004 A 
HETATM   29  C17 MK1 B 902      12.429  25.844   8.779  1.00 29.22    -0.000 A 
HETATM   30  C18 MK1 B 902      11.208  25.820   9.457  1.00 30.97    -0.000 A 
HETATM   31  C19 MK1 B 902      10.036  25.415   8.807  1.00 29.25    -0.000 A 
HETATM   32  C20 MK1 B 902      10.086  25.021   7.470  1.00 29.96    -0.004 A 
ENDBRANCH  26  27
ENDBRANCH  25  26
BRANCH  25  33
HETATM   33  C21 MK1 B 902      10.109  22.793   4.104  1.00 29.35     0.252 C 
HETATM   34  O3  MK1 B 902      10.470  22.088   3.150  1.00 32.66    -0.271 OA
HETATM   35  N4  MK1 B 902       8.962  23.466   4.132  1.00 31.19    -0.233 NA
BRANCH  35  36
HETATM   36  C22 MK1 B 902       8.120  23.585   2.953  1.00 29.22     0.159 C 
HETATM   37  C23 MK1 B 902       8.335  24.904   2.231  1.00 28.82     0.183 C 
HETATM   38  O4  MK1 B 902       8.635  25.933   3.163  1.00 28.32    -0.221 OA
HETATM   39  C24 MK1 B 902       7.065  25.139   1.445  1.00 32.05     0.061 C 
HETATM   40  C25 MK1 B 902       5.879  24.542   2.163  1.00 31.29    -0.022 A 
HETATM   41  C26 MK1 B 902       4.513  24.698   2.160  1.00 32.00    -0.004 A 
HETATM   42  C30 MK1 B 902       6.580  23.556   3.140  1.00 31.86    -0.001 A 
HETATM   43  C27 MK1 B 902       3.757  23.933   3.055  1.00 28.00    -0.000 A 
HETATM   44  C28 MK1 B 902       4.378  23.030   3.931  1.00 29.01    -0.000 A 
HETATM   45  C29 MK1 B 902       5.755  22.860   3.965  1.00 27.70    -0.003 A 
ENDBRANCH  35  36
ENDBRANCH  25  33
ENDBRANCH  24  25
ENDBRANCH   2  24
TORSDOF 12
ENDMDL
MODEL 4
REMARK VINA RESULT:    -9.781      2.119     10.817
REMARK INTER + INTRA:         -18.362
REMARK INTER:                 -16.845
REMARK INTRA:                  -1.517
REMARK UNBOUND:                -1.719
REMARK  12 active torsions:
REMARK  status: ('A' for Active; 'I' for Inactive)
REMARK    1  A    between atoms: N1_2  and  C31_40 
REMARK    2  A    between atoms: C2_4  and  C3_7 
REMARK       I    between atoms: N2_5  and  C3_7 
REMARK    3  A    between atoms: N2_5  and  C4_10 
REMARK    4  A    between atoms: N3_8  and  C10_19 
REMARK       I    between atoms: N4_11  and  C21_30 
REMARK    5  A    between atoms: N4_11  and  C22_31 
REMARK    6  A    between atoms: C10_19  and  C11_20 
REMARK    7  A    between atoms: C11_20  and  C12_21 
REMARK    8  A    between atoms: C12_21  and  C13_22 
REMARK    9  A    between atoms: C13_22  and  C14_23 
REMARK   10  A    between atoms: C13_22  and  C21_30 
REMARK   11  A    between atoms: C14_23  and  C15_24 
REMARK   12  A    between atoms: C31_40  and  C32_41 
ROOT
HETATM    1  O2  MK1 B 902      11.755  21.122   7.216  1.00 15.87    -0.221 OA
HETATM    2  C11 MK1 B 902      12.671  21.482   6.225  1.00 21.68     0.174 C 
ENDROOT
BRANCH   2   3
HETATM    3  C10 MK1 B 902      13.620  22.216   7.173  1.00 20.86     0.131 C 
BRANCH   3   4
HETATM    4  N3  MK1 B 902      14.827  21.480   7.493  1.00 28.91    -0.357 N 
HETATM    5  C2  MK1 B 902      16.021  21.681   6.598  1.00 27.27     0.192 C 
HETATM    6  C1  MK1 B 902      17.075  20.850   7.302  1.00 30.30     0.282 C 
HETATM    7  N1  MK1 B 902      17.457  21.120   8.715  1.00 28.25     0.146 N 
HETATM    8  C9  MK1 B 902      16.322  20.916   9.499  1.00 27.47     0.274 C 
HETATM    9  C8  MK1 B 902      15.023  21.484   8.964  1.00 26.24     0.133 C 
BRANCH   5  10
HETATM   10  C3  MK1 B 902      15.822  21.122   5.215  1.00 28.85     0.273 C 
HETATM   11  O1  MK1 B 902      15.642  21.874   4.265  1.00 29.59    -0.269 OA
HETATM   12  N2  MK1 B 902      15.839  19.810   5.092  1.00 22.29    -0.240 NA
BRANCH  12  13
HETATM   13  C4  MK1 B 902      15.751  18.990   3.926  1.00 23.47     0.088 C 
HETATM   14  C5  MK1 B 902      17.192  18.728   3.451  1.00 27.66     0.025 C 
HETATM   15  C6  MK1 B 902      15.004  19.562   2.908  1.00 21.71     0.025 C 
HETATM   16  C7  MK1 B 902      15.201  17.657   4.188  1.00 22.75     0.025 C 
ENDBRANCH  12  13
ENDBRANCH   5  10
BRANCH   7  17
HETATM   17  C31 MK1 B 902      18.675  20.473   9.217  1.00 36.25     0.278 C 
BRANCH  17  18
HETATM   18  C32 MK1 B 902      18.608  19.266  10.160  1.00 42.75     0.030 A 
HETATM   19  C33 MK1 B 902      18.258  17.978   9.729  1.00 47.41     0.097 A 
HETATM   20  N5  MK1 B 902      18.194  16.823  10.527  1.00 51.38    -0.243 NA
HETATM   21  C34 MK1 B 902      18.534  17.115  11.848  1.00 50.60     0.099 A 
HETATM   22  C35 MK1 B 902      18.890  18.373  12.342  1.00 49.34     0.020 A 
HETATM   23  C36 MK1 B 902      18.930  19.470  11.484  1.00 44.71     0.001 A 
ENDBRANCH  17  18
ENDBRANCH   7  17
ENDBRANCH   3   4
ENDBRANCH   2   3
BRANCH   2  24
HETATM   24  C12 MK1 B 902      11.894  22.161   5.083  1.00 21.49     0.045 C 
BRANCH  24  25
HETATM   25  C13 MK1 B 902      12.564  23.231   4.210  1.00 26.89     0.088 C 
BRANCH  25  26
HETATM   26  C14 MK1 B 902      12.017  23.237   2.771  1.00 28.67     0.036 C 
BRANCH  26  27
HETATM   27  C15 MK1 B 902      10.557  23.498   2.721  1.00 26.89    -0.022 A 
HETATM   28  C16 MK1 B 902      10.026  24.743   2.378  1.00 29.22    -0.004 A 
HETATM   29  C17 MK1 B 902       8.656  24.952   2.379  1.00 29.22    -0.000 A 
HETATM   30  C18 MK1 B 902       7.814  23.894   2.731  1.00 30.97    -0.000 A 
HETATM   31  C19 MK1 B 902       8.342  22.641   3.067  1.00 29.25    -0.000 A 
HETATM   32  C20 MK1 B 902       9.722  22.447   3.061  1.00 29.96    -0.004 A 
ENDBRANCH  26  27
ENDBRANCH  25  26
BRANCH  25  33
HETATM   33  C21 MK1 B 902      12.414  24.628   4.799  1.00 29.35     0.252 C 
HETATM   34  O3  MK1 B 902      13.319  25.467   4.675  1.00 32.66    -0.271 OA
HETATM   35  N4  MK1 B 902      11.326  24.820   5.540  1.00 31.19    -0.233 NA
BRANCH  35  36
HETATM   36  C22 MK1 B 902      11.201  25.964   6.427  1.00 29.22     0.159 C 
HETATM   37  C23 MK1 B 902      11.375  25.574   7.886  1.00 28.82     0.183 C 
HETATM   38  O4  MK1 B 902      10.862  24.270   8.111  1.00 28.32    -0.221 OA
HETATM   39  C24 MK1 B 902      10.669  26.655   8.672  1.00 32.05     0.061 C 
HETATM   40  C25 MK1 B 902       9.504  27.208   7.889  1.00 31.29    -0.022 A 
HETATM   41  C26 MK1 B 902       8.346  27.900   8.153  1.00 32.00    -0.004 A 
HETATM   42  C30 MK1 B 902       9.857  26.739   6.449  1.00 31.86    -0.001 A 
HETATM   43  C27 MK1 B 902       7.489  28.190   7.085  1.00 28.00    -0.000 A 
HETATM   44  C28 MK1 B 902       7.804  27.784   5.780  1.00 29.01    -0.000 A 
HETATM   45  C29 MK1 B 902       8.959  27.073   5.484  1.00 27.70    -0.003 A 
ENDBRANCH  35  36
ENDBRANCH  25  33
ENDBRANCH  24  25
ENDBRANCH   2  24
TORSDOF 12
ENDMDL
MODEL 5
REMARK VINA RESULT:    -9.464      2.485     11.295
REMARK INTER + INTRA:         -17.823
REMARK INTER:                 -16.024
REMARK INTRA:                  -1.799
REMARK UNBOUND:                -1.719
REMARK  12 active torsions:
REMARK  status: ('A' for Active; 'I' for Inactive)
REMARK    1  A    between atoms: N1_2  and  C31_40 
REMARK    2  A    between atoms: C2_4  and  C3_7 
REMARK       I    between atoms: N2_5  and  C3_7 
REMARK    3  A    between atoms: N2_5  and  C4_10 
REMARK    4  A    between atoms: N3_8  and  C10_19 
REMARK       I    between atoms: N4_11  and  C21_30 
REMARK    5  A    between atoms: N4_11  and  C22_31 
REMARK    6  A    between atoms: C10_19  and  C11_20 
REMARK    7  A    between atoms: C11_20  and  C12_21 
REMARK    8  A    between atoms: C12_21  and  C13_22 
REMARK    9  A    between atoms: C13_22  and  C14_23 
REMARK   10  A    between atoms: C13_22  and  C21_30 
REMARK   11  A    between atoms: C14_23  and  C15_24 
REMARK   12  A    between atoms: C31_40  and  C32_41 
ROOT
HETATM    1  O2  MK1 B 902      15.868  23.707   7.233  1.00 15.87    -0.221 OA
HETATM    2  C11 MK1 B 902      14.996  22.780   7.807  1.00 21.68     0.174 C 
ENDROOT
BRANCH   2   3
HETATM    3  C10 MK1 B 902      15.499  21.591   6.987  1.00 20.86     0.131 C 
BRANCH   3   4
HETATM    4  N3  MK1 B 902      16.222  20.601   7.760  1.00 28.91    -0.357 N 
HETATM    5  C2  MK1 B 902      17.652  20.327   7.375  1.00 27.27     0.192 C 
HETATM    6  C1  MK1 B 902      18.076  19.345   8.450  1.00 30.30     0.282 C 
HETATM    7  N1  MK1 B 902      18.005  19.700   9.893  1.00 28.25     0.146 N 
HETATM    8  C9  MK1 B 902      16.666  19.938  10.197  1.00 27.47     0.274 C 
HETATM    9  C8  MK1 B 902      15.884  20.764   9.196  1.00 26.24     0.133 C 
BRANCH   5  10
HETATM   10  C3  MK1 B 902      17.783  19.652   6.037  1.00 28.85     0.273 C 
HETATM   11  O1  MK1 B 902      18.776  19.839   5.345  1.00 29.59    -0.269 OA
HETATM   12  N2  MK1 B 902      16.786  18.878   5.657  1.00 22.29    -0.240 NA
BRANCH  12  13
HETATM   13  C4  MK1 B 902      16.642  18.060   4.495  1.00 23.47     0.088 C 
HETATM   14  C5  MK1 B 902      15.166  17.625   4.432  1.00 27.66     0.025 C 
HETATM   15  C6  MK1 B 902      17.472  16.950   4.499  1.00 21.71     0.025 C 
HETATM   16  C7  MK1 B 902      16.867  18.781   3.239  1.00 22.75     0.025 C 
ENDBRANCH  12  13
ENDBRANCH   5  10
BRANCH   7  17
HETATM   17  C31 MK1 B 902      18.703  18.817  10.836  1.00 36.25     0.278 C 
BRANCH  17  18
HETATM   18  C32 MK1 B 902      18.564  17.293  10.756  1.00 42.75     0.030 A 
HETATM   19  C33 MK1 B 902      19.538  16.465  10.178  1.00 47.41     0.097 A 
HETATM   20  N5  MK1 B 902      19.491  15.064  10.085  1.00 51.38    -0.243 NA
HETATM   21  C34 MK1 B 902      18.320  14.570  10.658  1.00 50.60     0.099 A 
HETATM   22  C35 MK1 B 902      17.311  15.337  11.248  1.00 49.34     0.020 A 
HETATM   23  C36 MK1 B 902      17.434  16.723  11.301  1.00 44.71     0.001 A 
ENDBRANCH  17  18
ENDBRANCH   7  17
ENDBRANCH   3   4
ENDBRANCH   2   3
BRANCH   2  24
HETATM   24  C12 MK1 B 902      13.569  23.349   7.718  1.00 21.49     0.045 C 
BRANCH  24  25
HETATM   25  C13 MK1 B 902      12.936  23.663   6.355  1.00 26.89     0.088 C 
BRANCH  25  26
HETATM   26  C14 MK1 B 902      11.996  22.542   5.876  1.00 28.67     0.036 C 
BRANCH  26  27
HETATM   27  C15 MK1 B 902      11.252  22.912   4.646  1.00 26.89    -0.022 A 
HETATM   28  C16 MK1 B 902       9.862  23.047   4.619  1.00 29.22    -0.004 A 
HETATM   29  C17 MK1 B 902       9.205  23.359   3.438  1.00 29.22    -0.000 A 
HETATM   30  C18 MK1 B 902       9.959  23.535   2.275  1.00 30.97    -0.000 A 
HETATM   31  C19 MK1 B 902      11.354  23.409   2.300  1.00 29.25    -0.000 A 
HETATM   32  C20 MK1 B 902      12.000  23.095   3.495  1.00 29.96    -0.004 A 
ENDBRANCH  26  27
ENDBRANCH  25  26
BRANCH  25  33
HETATM   33  C21 MK1 B 902      12.166  24.979   6.370  1.00 29.35     0.252 C 
HETATM   34  O3  MK1 B 902      12.490  25.909   5.616  1.00 32.66    -0.271 OA
HETATM   35  N4  MK1 B 902      11.236  25.083   7.314  1.00 31.19    -0.233 NA
BRANCH  35  36
HETATM   36  C22 MK1 B 902      10.655  26.367   7.672  1.00 29.22     0.159 C 
HETATM   37  C23 MK1 B 902      10.248  26.420   9.134  1.00 28.82     0.183 C 
HETATM   38  O4  MK1 B 902       9.808  25.143   9.570  1.00 28.32    -0.221 OA
HETATM   39  C24 MK1 B 902       9.187  27.494   9.213  1.00 32.05     0.061 C 
HETATM   40  C25 MK1 B 902       8.403  27.561   7.926  1.00 31.29    -0.022 A 
HETATM   41  C26 MK1 B 902       7.181  28.036   7.510  1.00 32.00    -0.004 A 
HETATM   42  C30 MK1 B 902       9.357  26.816   6.950  1.00 31.86    -0.001 A 
HETATM   43  C27 MK1 B 902       6.816  27.846   6.173  1.00 28.00    -0.000 A 
HETATM   44  C28 MK1 B 902       7.675  27.188   5.280  1.00 29.01    -0.000 A 
HETATM   45  C29 MK1 B 902       8.908  26.687   5.673  1.00 27.70    -0.003 A 
ENDBRANCH  35  36
ENDBRANCH  25  33
ENDBRANCH  24  25
ENDBRANCH   2  24
TORSDOF 12
ENDMDL
MODEL 6
REMARK VINA RESULT:    -8.925      2.104     10.754
REMARK INTER + INTRA:         -16.906
REMARK INTER:                 -15.421
REMARK INTRA:                  -1.485
REMARK UNBOUND:                -1.719
REMARK  12 active torsions:
REMARK  status: ('A' for Active; 'I' for Inactive)
REMARK    1  A    between atoms: N1_2  and  C31_40 
REMARK    2  A    between atoms: C2_4  and  C3_7 
REMARK       I    between atoms: N2_5  and  C3_7 
REMARK    3  A    between atoms: N2_5  and  C4_10 
REMARK    4  A    between atoms: N3_8  and  C10_19 
REMARK       I    between atoms: N4_11  and  C21_30 
REMARK    5  A    between atoms: N4_11  and  C22_31 
REMARK    6  A    between atoms: C10_19  and  C11_20 
REMARK    7  A    between atoms: C11_20  and  C12_21 
REMARK    8  A    between atoms: C12_21  and  C13_22 
REMARK    9  A    between atoms: C13_22  and  C14_23 
REMARK   10  A    between atoms: C13_22  and  C21_30 
REMARK   11  A    between atoms: C14_23  and  C15_24 
REMARK   12  A    between atoms: C31_40  and  C32_41 
ROOT
HETATM    1  O2  MK1 B 902      12.412  24.241   7.282  1.00 15.87    -0.221 OA
HETATM    2  C11 MK1 B 902      12.333  23.274   6.278  1.00 21.68     0.174 C 
ENDROOT
BRANCH   2   3
HETATM    3  C10 MK1 B 902      13.721  23.558   5.702  1.00 20.86     0.131 C 
BRANCH   3   4
HETATM    4  N3  MK1 B 902      14.406  22.385   5.197  1.00 28.91    -0.357 N 
HETATM    5  C2  MK1 B 902      14.424  21.160   6.072  1.00 27.27     0.192 C 
HETATM    6  C1  MK1 B 902      15.118  20.153   5.176  1.00 30.30     0.282 C 
HETATM    7  N1  MK1 B 902      14.572  19.804   3.837  1.00 28.25     0.146 N 
HETATM    8  C9  MK1 B 902      14.581  20.966   3.068  1.00 27.47     0.274 C 
HETATM    9  C8  MK1 B 902      14.103  22.231   3.752  1.00 26.24     0.133 C 
BRANCH   5  10
HETATM   10  C3  MK1 B 902      15.251  21.337   7.317  1.00 28.85     0.273 C 
HETATM   11  O1  MK1 B 902      14.774  21.884   8.303  1.00 29.59    -0.269 OA
HETATM   12  N2  MK1 B 902      16.491  20.892   7.279  1.00 22.29    -0.240 NA
BRANCH  12  13
HETATM   13  C4  MK1 B 902      17.489  20.849   8.299  1.00 23.47     0.088 C 
HETATM   14  C5  MK1 B 902      18.745  20.216   7.673  1.00 27.66     0.025 C 
HETATM   15  C6  MK1 B 902      17.098  20.134   9.420  1.00 21.71     0.025 C 
HETATM   16  C7  MK1 B 902      17.928  22.174   8.746  1.00 22.75     0.025 C 
ENDBRANCH  12  13
ENDBRANCH   5  10
BRANCH   7  17
HETATM   17  C31 MK1 B 902      15.131  18.621   3.171  1.00 36.25     0.278 C 
BRANCH  17  18
HETATM   18  C32 MK1 B 902      16.437  17.977   3.651  1.00 42.75     0.030 A 
HETATM   19  C33 MK1 B 902      16.501  17.106   4.748  1.00 47.41     0.097 A 
HETATM   20  N5  MK1 B 902      17.653  16.464   5.234  1.00 51.38    -0.243 NA
HETATM   21  C34 MK1 B 902      18.768  16.803   4.469  1.00 50.60     0.099 A 
HETATM   22  C35 MK1 B 902      18.773  17.663   3.367  1.00 49.34     0.020 A 
HETATM   23  C36 MK1 B 902      17.587  18.261   2.948  1.00 44.71     0.001 A 
ENDBRANCH  17  18
ENDBRANCH   7  17
ENDBRANCH   3   4
ENDBRANCH   2   3
BRANCH   2  24
HETATM   24  C12 MK1 B 902      11.018  23.493   5.509  1.00 21.49     0.045 C 
BRANCH  24  25
HETATM   25  C13 MK1 B 902      10.925  24.554   4.403  1.00 26.89     0.088 C 
BRANCH  25  26
HETATM   26  C14 MK1 B 902      10.435  23.965   3.068  1.00 28.67     0.036 C 
BRANCH  26  27
HETATM   27  C15 MK1 B 902       8.957  24.003   2.939  1.00 26.89    -0.022 A 
HETATM   28  C16 MK1 B 902       8.114  23.194   3.703  1.00 29.22    -0.004 A 
HETATM   29  C17 MK1 B 902       6.739  23.237   3.523  1.00 29.22    -0.000 A 
HETATM   30  C18 MK1 B 902       6.214  24.105   2.562  1.00 30.97    -0.000 A 
HETATM   31  C19 MK1 B 902       7.056  24.924   1.800  1.00 29.25    -0.000 A 
HETATM   32  C20 MK1 B 902       8.436  24.869   1.993  1.00 29.96    -0.004 A 
ENDBRANCH  26  27
ENDBRANCH  25  26
BRANCH  25  33
HETATM   33  C21 MK1 B 902      10.013  25.711   4.795  1.00 29.35     0.252 C 
HETATM   34  O3  MK1 B 902       9.861  26.681   4.037  1.00 32.66    -0.271 OA
HETATM   35  N4  MK1 B 902       9.514  25.651   6.027  1.00 31.19    -0.233 NA
BRANCH  35  36
HETATM   36  C22 MK1 B 902       8.910  26.811   6.660  1.00 29.22     0.159 C 
HETATM   37  C23 MK1 B 902       8.950  26.717   8.176  1.00 28.82     0.183 C 
HETATM   38  O4  MK1 B 902       8.818  25.365   8.589  1.00 28.32    -0.221 OA
HETATM   39  C24 MK1 B 902       7.835  27.617   8.659  1.00 32.05     0.061 C 
HETATM   40  C25 MK1 B 902       6.704  27.644   7.661  1.00 31.29    -0.022 A 
HETATM   41  C26 MK1 B 902       5.365  27.958   7.658  1.00 32.00    -0.004 A 
HETATM   42  C30 MK1 B 902       7.412  27.107   6.385  1.00 31.86    -0.001 A 
HETATM   43  C27 MK1 B 902       4.649  27.797   6.466  1.00 28.00    -0.000 A 
HETATM   44  C28 MK1 B 902       5.281  27.327   5.306  1.00 29.01    -0.000 A 
HETATM   45  C29 MK1 B 902       6.628  26.990   5.281  1.00 27.70    -0.003 A 
ENDBRANCH  35  36
ENDBRANCH  25  33
ENDBRANCH  24  25
ENDBRANCH   2  24
TORSDOF 12
ENDMDL
MODEL 7
REMARK VINA RESULT:    -8.634      3.874     11.605
REMARK INTER + INTRA:         -16.410
REMARK INTER:                 -14.667
REMARK INTRA:                  -1.743
REMARK UNBOUND:                -1.719
REMARK  12 active torsions:
REMARK  status: ('A' for Active; 'I' for Inactive)
REMARK    1  A    between atoms: N1_2  and  C31_40 
REMARK    2  A    between atoms: C2_4  and  C3_7 
REMARK       I    between atoms: N2_5  and  C3_7 
REMARK    3  A    between atoms: N2_5  and  C4_10 
REMARK    4  A    between atoms: N3_8  and  C10_19 
REMARK       I    between atoms: N4_11  and  C21_30 
REMARK    5  A    between atoms: N4_11  and  C22_31 
REMARK    6  A    between atoms: C10_19  and  C11_20 
REMARK    7  A    between atoms: C11_20  and  C12_21 
REMARK    8  A    between atoms: C12_21  and  C13_22 
REMARK    9  A    between atoms: C13_22  and  C14_23 
REMARK   10  A    between atoms: C13_22  and  C21_30 
REMARK   11  A    between atoms: C14_23  and  C15_24 
REMARK   12  A    between atoms: C31_40  and  C32_41 
ROOT
HETATM    1  O2  MK1 B 902       7.440  28.124   8.772  1.00 15.87    -0.221 OA
HETATM    2  C11 MK1 B 902       7.472  27.354   7.608  1.00 21.68     0.174 C 
ENDROOT
BRANCH   2   3
HETATM    3  C10 MK1 B 902       8.916  27.706   7.249  1.00 20.86     0.131 C 
BRANCH   3   4
HETATM    4  N3  MK1 B 902       9.834  26.586   7.315  1.00 28.91    -0.357 N 
HETATM    5  C2  MK1 B 902      10.585  26.228   6.060  1.00 27.27     0.192 C 
HETATM    6  C1  MK1 B 902      11.488  25.113   6.550  1.00 30.30     0.282 C 
HETATM    7  N1  MK1 B 902      12.450  25.330   7.664  1.00 28.25     0.146 N 
HETATM    8  C9  MK1 B 902      11.706  25.653   8.799  1.00 27.47     0.274 C 
HETATM    9  C8  MK1 B 902      10.571  26.637   8.602  1.00 26.24     0.133 C 
BRANCH   5  10
HETATM   10  C3  MK1 B 902       9.697  25.678   4.977  1.00 28.85     0.273 C 
HETATM   11  O1  MK1 B 902       8.831  26.381   4.471  1.00 29.59    -0.269 OA
HETATM   12  N2  MK1 B 902       9.891  24.422   4.626  1.00 22.29    -0.240 NA
BRANCH  12  13
HETATM   13  C4  MK1 B 902       9.270  23.643   3.602  1.00 23.47     0.088 C 
HETATM   14  C5  MK1 B 902       9.968  22.270   3.598  1.00 27.66     0.025 C 
HETATM   15  C6  MK1 B 902       9.345  24.225   2.347  1.00 21.71     0.025 C 
HETATM   16  C7  MK1 B 902       7.861  23.339   3.870  1.00 22.75     0.025 C 
ENDBRANCH  12  13
ENDBRANCH   5  10
BRANCH   7  17
HETATM   17  C31 MK1 B 902      13.477  24.303   7.875  1.00 36.25     0.278 C 
BRANCH  17  18
HETATM   18  C32 MK1 B 902      13.830  23.290   6.779  1.00 42.75     0.030 A 
HETATM   19  C33 MK1 B 902      14.686  23.589   5.709  1.00 47.41     0.097 A 
HETATM   20  N5  MK1 B 902      15.071  22.711   4.682  1.00 51.38    -0.243 NA
HETATM   21  C34 MK1 B 902      14.483  21.459   4.855  1.00 50.60     0.099 A 
HETATM   22  C35 MK1 B 902      13.623  21.096   5.896  1.00 49.34     0.020 A 
HETATM   23  C36 MK1 B 902      13.290  22.027   6.877  1.00 44.71     0.001 A 
ENDBRANCH  17  18
ENDBRANCH   7  17
ENDBRANCH   3   4
ENDBRANCH   2   3
BRANCH   2  24
HETATM   24  C12 MK1 B 902       6.251  27.734   6.752  1.00 21.49     0.045 C 
BRANCH  24  25
HETATM   25  C13 MK1 B 902       5.019  26.820   6.697  1.00 26.89     0.088 C 
BRANCH  25  26
HETATM   26  C14 MK1 B 902       3.707  27.596   6.908  1.00 28.67     0.036 C 
BRANCH  26  27
HETATM   27  C15 MK1 B 902       3.711  28.913   6.224  1.00 26.89    -0.022 A 
HETATM   28  C16 MK1 B 902       4.181  30.077   6.836  1.00 29.22    -0.004 A 
HETATM   29  C17 MK1 B 902       4.132  31.294   6.173  1.00 29.22    -0.000 A 
HETATM   30  C18 MK1 B 902       3.603  31.334   4.881  1.00 30.97    -0.000 A 
HETATM   31  C19 MK1 B 902       3.138  30.168   4.261  1.00 29.25    -0.000 A 
HETATM   32  C20 MK1 B 902       3.194  28.952   4.940  1.00 29.96    -0.004 A 
ENDBRANCH  26  27
ENDBRANCH  25  26
BRANCH  25  33
HETATM   33  C21 MK1 B 902       4.933  26.054   5.382  1.00 29.35     0.252 C 
HETATM   34  O3  MK1 B 902       5.580  26.425   4.391  1.00 32.66    -0.271 OA
HETATM   35  N4  MK1 B 902       4.040  25.068   5.355  1.00 31.19    -0.233 NA
BRANCH  35  36
HETATM   36  C22 MK1 B 902       3.606  24.469   4.104  1.00 29.22     0.159 C 
HETATM   37  C23 MK1 B 902       2.228  24.956   3.688  1.00 28.82     0.183 C 
HETATM   38  O4  MK1 B 902       1.425  25.197   4.834  1.00 28.32    -0.221 OA
HETATM   39  C24 MK1 B 902       1.685  23.881   2.774  1.00 32.05     0.061 C 
HETATM   40  C25 MK1 B 902       2.220  22.527   3.171  1.00 31.29    -0.022 A 
HETATM   41  C26 MK1 B 902       1.873  21.210   2.985  1.00 32.00    -0.004 A 
HETATM   42  C30 MK1 B 902       3.446  22.927   4.039  1.00 31.86    -0.001 A 
HETATM   43  C27 MK1 B 902       2.663  20.225   3.589  1.00 28.00    -0.000 A 
HETATM   44  C28 MK1 B 902       3.780  20.574   4.363  1.00 29.01    -0.000 A 
HETATM   45  C29 MK1 B 902       4.147  21.895   4.578  1.00 27.70    -0.003 A 
ENDBRANCH  35  36
ENDBRANCH  25  33
ENDBRANCH  24  25
ENDBRANCH   2  24
TORSDOF 12
ENDMDL
MODEL 8
REMARK VINA RESULT:    -8.324      2.229     10.559
REMARK INTER + INTRA:         -15.883
REMARK INTER:                 -15.292
REMARK INTRA:                  -0.591
REMARK UNBOUND:                -1.719
REMARK  12 active torsions:
REMARK  status: ('A' for Active; 'I' for Inactive)
REMARK    1  A    between atoms: N1_2  and  C31_40 
REMARK    2  A    between atoms: C2_4  and  C3_7 
REMARK       I    between atoms: N2_5  and  C3_7 
REMARK    3  A    between atoms: N2_5  and  C4_10 
REMARK    4  A    between atoms: N3_8  and  C10_19 
REMARK       I    between atoms: N4_11  and  C21_30 
REMARK    5  A    between atoms: N4_11  and  C22_31 
REMARK    6  A    between atoms: C10_19  and  C11_20 
REMARK    7  A    between atoms: C11_20  and  C12_21 
REMARK    8  A    between atoms: C12_21  and  C13_22 
REMARK    9  A    between atoms: C13_22  and  C14_23 
REMARK   10  A    between atoms: C13_22  and  C21_30 
REMARK   11  A    between atoms: C14_23  and  C15_24 
REMARK   12  A    between atoms: C31_40  and  C32_41 
ROOT
HETATM    1  O2  MK1 B 902      16.197  23.602   8.049  1.00 15.87    -0.221 OA
HETATM    2  C11 MK1 B 902      14.960  23.000   7.815  1.00 21.68     0.174 C 
ENDROOT
BRANCH   2   3
HETATM    3  C10 MK1 B 902      15.528  21.819   7.027  1.00 20.86     0.131 C 
BRANCH   3   4
HETATM    4  N3  MK1 B 902      16.202  20.829   7.844  1.00 28.91    -0.357 N 
HETATM    5  C2  MK1 B 902      17.622  20.482   7.484  1.00 27.27     0.192 C 
HETATM    6  C1  MK1 B 902      17.995  19.525   8.599  1.00 30.30     0.282 C 
HETATM    7  N1  MK1 B 902      17.927  19.936  10.027  1.00 28.25     0.146 N 
HETATM    8  C9  MK1 B 902      16.596  20.242  10.309  1.00 27.47     0.274 C 
HETATM    9  C8  MK1 B 902      15.858  21.060   9.269  1.00 26.24     0.133 C 
BRANCH   5  10
HETATM   10  C3  MK1 B 902      17.737  19.751   6.174  1.00 28.85     0.273 C 
HETATM   11  O1  MK1 B 902      18.770  19.815   5.519  1.00 29.59    -0.269 OA
HETATM   12  N2  MK1 B 902      16.682  19.068   5.775  1.00 22.29    -0.240 NA
BRANCH  12  13
HETATM   13  C4  MK1 B 902      16.501  18.229   4.634  1.00 23.47     0.088 C 
HETATM   14  C5  MK1 B 902      15.040  17.743   4.660  1.00 27.66     0.025 C 
HETATM   15  C6  MK1 B 902      17.369  17.148   4.604  1.00 21.71     0.025 C 
HETATM   16  C7  MK1 B 902      16.630  18.939   3.358  1.00 22.75     0.025 C 
ENDBRANCH  12  13
ENDBRANCH   5  10
BRANCH   7  17
HETATM   17  C31 MK1 B 902      18.578  19.063  11.010  1.00 36.25     0.278 C 
BRANCH  17  18
HETATM   18  C32 MK1 B 902      18.009  17.681  11.352  1.00 42.75     0.030 A 
HETATM   19  C33 MK1 B 902      16.662  17.340  11.159  1.00 47.41     0.097 A 
HETATM   20  N5  MK1 B 902      16.073  16.093  11.429  1.00 51.38    -0.243 NA
HETATM   21  C34 MK1 B 902      17.017  15.198  11.928  1.00 50.60     0.099 A 
HETATM   22  C35 MK1 B 902      18.371  15.472  12.144  1.00 49.34     0.020 A 
HETATM   23  C36 MK1 B 902      18.878  16.735  11.850  1.00 44.71     0.001 A 
ENDBRANCH  17  18
ENDBRANCH   7  17
ENDBRANCH   3   4
ENDBRANCH   2   3
BRANCH   2  24
HETATM   24  C12 MK1 B 902      14.018  24.062   7.221  1.00 21.49     0.045 C 
BRANCH  24  25
HETATM   25  C13 MK1 B 902      12.595  24.240   7.769  1.00 26.89     0.088 C 
BRANCH  25  26
HETATM   26  C14 MK1 B 902      12.312  25.691   8.198  1.00 28.67     0.036 C 
BRANCH  26  27
HETATM   27  C15 MK1 B 902      10.865  25.948   8.408  1.00 26.89    -0.022 A 
HETATM   28  C16 MK1 B 902      10.112  25.268   9.367  1.00 29.22    -0.004 A 
HETATM   29  C17 MK1 B 902       8.754  25.515   9.505  1.00 29.22    -0.000 A 
HETATM   30  C18 MK1 B 902       8.153  26.457   8.666  1.00 30.97    -0.000 A 
HETATM   31  C19 MK1 B 902       8.907  27.147   7.709  1.00 29.25    -0.000 A 
HETATM   32  C20 MK1 B 902      10.271  26.888   7.583  1.00 29.96    -0.004 A 
ENDBRANCH  26  27
ENDBRANCH  25  26
BRANCH  25  33
HETATM   33  C21 MK1 B 902      11.535  23.808   6.762  1.00 29.35     0.252 C 
HETATM   34  O3  MK1 B 902      10.737  22.899   7.035  1.00 32.66    -0.271 OA
HETATM   35  N4  MK1 B 902      11.620  24.382   5.564  1.00 31.19    -0.233 NA
BRANCH  35  36
HETATM   36  C22 MK1 B 902      10.911  23.849   4.413  1.00 29.22     0.159 C 
HETATM   37  C23 MK1 B 902      11.755  23.898   3.151  1.00 28.82     0.183 C 
HETATM   38  O4  MK1 B 902      12.602  25.038   3.169  1.00 28.32    -0.221 OA
HETATM   39  C24 MK1 B 902      10.765  23.887   2.010  1.00 32.05     0.061 C 
HETATM   40  C25 MK1 B 902       9.481  24.570   2.413  1.00 31.29    -0.022 A 
HETATM   41  C26 MK1 B 902       8.408  25.157   1.786  1.00 32.00    -0.004 A 
HETATM   42  C30 MK1 B 902       9.601  24.550   3.964  1.00 31.86    -0.001 A 
HETATM   43  C27 MK1 B 902       7.408  25.730   2.580  1.00 28.00    -0.000 A 
HETATM   44  C28 MK1 B 902       7.499  25.705   3.979  1.00 29.01    -0.000 A 
HETATM   45  C29 MK1 B 902       8.576  25.131   4.641  1.00 27.70    -0.003 A 
ENDBRANCH  35  36
ENDBRANCH  25  33
ENDBRANCH  24  25
ENDBRANCH   2  24
TORSDOF 12
ENDMDL
MODEL 9
REMARK VINA RESULT:    -8.308      4.469      9.231
REMARK INTER + INTRA:         -15.856
REMARK INTER:                 -14.695
REMARK INTRA:                  -1.161
REMARK UNBOUND:                -1.719
REMARK  12 active torsions:
REMARK  status: ('A' for Active; 'I' for Inactive)
REMARK    1  A    between atoms: N1_2  and  C31_40 
REMARK    2  A    between atoms: C2_4  and  C3_7 
REMARK       I    between atoms: N2_5  and  C3_7 
REMARK    3  A    between atoms: N2_5  and  C4_10 
REMARK    4  A    between atoms: N3_8  and  C10_19 
REMARK       I    between atoms: N4_11  and  C21_30 
REMARK    5  A    between atoms: N4_11  and  C22_31 
REMARK    6  A    between atoms: C10_19  and  C11_20 
REMARK    7  A    between atoms: C11_20  and  C12_21 
REMARK    8  A    between atoms: C12_21  and  C13_22 
REMARK    9  A    between atoms: C13_22  and  C14_23 
REMARK   10  A    between atoms: C13_22  and  C21_30 
REMARK   11  A    between atoms: C14_23  and  C15_24 
REMARK   12  A    between atoms: C31_40  and  C32_41 
ROOT
HETATM    1  O2  MK1 B 902      16.202  19.394  10.119  1.00 15.87    -0.221 OA
HETATM    2  C11 MK1 B 902      17.368  19.943   9.583  1.00 21.68     0.174 C 
ENDROOT
BRANCH   2   3
HETATM    3  C10 MK1 B 902      16.853  19.985   8.144  1.00 20.86     0.131 C 
BRANCH   3   4
HETATM    4  N3  MK1 B 902      16.284  21.260   7.754  1.00 28.91    -0.357 N 
HETATM    5  C2  MK1 B 902      15.111  21.237   6.812  1.00 27.27     0.192 C 
HETATM    6  C1  MK1 B 902      14.752  22.708   6.735  1.00 30.30     0.282 C 
HETATM    7  N1  MK1 B 902      14.399  23.484   7.954  1.00 28.25     0.146 N 
HETATM    8  C9  MK1 B 902      15.516  23.477   8.788  1.00 27.47     0.274 C 
HETATM    9  C8  MK1 B 902      16.237  22.153   8.939  1.00 26.24     0.133 C 
BRANCH   5  10
HETATM   10  C3  MK1 B 902      15.472  20.764   5.430  1.00 28.85     0.273 C 
HETATM   11  O1  MK1 B 902      15.871  21.560   4.589  1.00 29.59    -0.269 OA
HETATM   12  N2  MK1 B 902      15.325  19.479   5.180  1.00 22.29    -0.240 NA
BRANCH  12  13
HETATM   13  C4  MK1 B 902      15.640  18.722   4.011  1.00 23.47     0.088 C 
HETATM   14  C5  MK1 B 902      14.975  17.342   4.176  1.00 27.66     0.025 C 
HETATM   15  C6  MK1 B 902      17.003  18.578   3.801  1.00 21.71     0.025 C 
HETATM   16  C7  MK1 B 902      15.055  19.269   2.783  1.00 22.75     0.025 C 
ENDBRANCH  12  13
ENDBRANCH   5  10
BRANCH   7  17
HETATM   17  C31 MK1 B 902      13.786  24.803   7.758  1.00 36.25     0.278 C 
BRANCH  17  18
HETATM   18  C32 MK1 B 902      12.302  25.047   8.058  1.00 42.75     0.030 A 
HETATM   19  C33 MK1 B 902      11.267  24.490   7.293  1.00 47.41     0.097 A 
HETATM   20  N5  MK1 B 902       9.889  24.652   7.516  1.00 51.38    -0.243 NA
HETATM   21  C34 MK1 B 902       9.660  25.457   8.631  1.00 50.60     0.099 A 
HETATM   22  C35 MK1 B 902      10.643  26.042   9.434  1.00 49.34     0.020 A 
HETATM   23  C36 MK1 B 902      11.990  25.833   9.145  1.00 44.71     0.001 A 
ENDBRANCH  17  18
ENDBRANCH   7  17
ENDBRANCH   3   4
ENDBRANCH   2   3
BRANCH   2  24
HETATM   24  C12 MK1 B 902      18.558  19.085  10.051  1.00 21.49     0.045 C 
BRANCH  24  25
HETATM   25  C13 MK1 B 902      18.450  18.223  11.317  1.00 26.89     0.088 C 
BRANCH  25  26
HETATM   26  C14 MK1 B 902      18.041  16.773  11.002  1.00 28.67     0.036 C 
BRANCH  26  27
HETATM   27  C15 MK1 B 902      17.103  16.217  12.009  1.00 26.89    -0.022 A 
HETATM   28  C16 MK1 B 902      17.538  15.622  13.195  1.00 29.22    -0.004 A 
HETATM   29  C17 MK1 B 902      16.627  15.083  14.091  1.00 29.22    -0.000 A 
HETATM   30  C18 MK1 B 902      15.265  15.145  13.785  1.00 30.97    -0.000 A 
HETATM   31  C19 MK1 B 902      14.825  15.749  12.601  1.00 29.25    -0.000 A 
HETATM   32  C20 MK1 B 902      15.753  16.286  11.710  1.00 29.96    -0.004 A 
ENDBRANCH  26  27
ENDBRANCH  25  26
BRANCH  25  33
HETATM   33  C21 MK1 B 902      19.751  18.207  12.111  1.00 29.35     0.252 C 
HETATM   34  O3  MK1 B 902      20.763  17.654  11.654  1.00 32.66    -0.271 OA
HETATM   35  N4  MK1 B 902      19.674  18.705  13.342  1.00 31.19    -0.233 NA
BRANCH  35  36
HETATM   36  C22 MK1 B 902      20.715  18.466  14.327  1.00 29.22     0.159 C 
HETATM   37  C23 MK1 B 902      20.272  17.482  15.396  1.00 28.82     0.183 C 
HETATM   38  O4  MK1 B 902      18.883  17.626  15.653  1.00 28.32    -0.221 OA
HETATM   39  C24 MK1 B 902      21.150  17.772  16.592  1.00 32.05     0.061 C 
HETATM   40  C25 MK1 B 902      21.526  19.233  16.632  1.00 31.29    -0.022 A 
HETATM   41  C26 MK1 B 902      21.974  20.136  17.568  1.00 32.00    -0.004 A 
HETATM   42  C30 MK1 B 902      21.224  19.665  15.169  1.00 31.86    -0.001 A 
HETATM   43  C27 MK1 B 902      22.167  21.463  17.169  1.00 28.00    -0.000 A 
HETATM   44  C28 MK1 B 902      21.911  21.861  15.848  1.00 29.01    -0.000 A 
HETATM   45  C29 MK1 B 902      21.448  20.975  14.885  1.00 27.70    -0.003 A 
ENDBRANCH  35  36
ENDBRANCH  25  33
ENDBRANCH  24  25
ENDBRANCH   2  24
TORSDOF 12
ENDMDL
