MODEL 1
REMARK VINA RESULT:    -6.764      0.000      0.000
REMARK INTER + INTRA:         -13.996
REMARK INTER:                 -11.508
REMARK INTRA:                  -2.488
REMARK UNBOUND:                -2.488
REMARK  12 active torsions:
REMARK  status: ('A' for Active; 'I' for Inactive)
REMARK    1  A    between atoms: N1_2  and  C31_40 
REMARK    2  A    between atoms: C2_4  and  C3_7 
REMARK       I    between atoms: N2_5  and  C3_7 
REMARK    3  A    between atoms: N2_5  and  C4_10 
REMARK    4  A    between atoms: N3_8  and  C10_19 
REMARK       I    between atoms: N4_11  and  C21_30 
REMARK    5  A    between atoms: N4_11  and  C22_31 
REMARK    6  A    between atoms: C10_19  and  C11_20 
REMARK    7  A    between atoms: C11_20  and  C12_21 
REMARK    8  A    between atoms: C12_21  and  C13_22 
REMARK    9  A    between atoms: C13_22  and  C14_23 
REMARK   10  A    between atoms: C13_22  and  C21_30 
REMARK   11  A    between atoms: C14_23  and  C15_24 
REMARK   12  A    between atoms: C31_40  and  C32_41 
ROOT
HETATM    1  O2  MK1 B 902      12.066  46.814  25.892  1.00 15.87    -0.221 OA
HETATM    2  C11 MK1 B 902      12.034  45.986  24.768  1.00 21.68     0.174 C 
ENDROOT
BRANCH   2   3
HETATM    3  C10 MK1 B 902      11.637  44.725  25.536  1.00 20.86     0.131 C 
BRANCH   3   4
HETATM    4  N3  MK1 B 902      10.944  43.736  24.735  1.00 28.91    -0.357 N 
HETATM    5  C2  MK1 B 902      10.885  42.328  25.267  1.00 27.27     0.192 C 
HETATM    6  C1  MK1 B 902      10.015  41.645  24.230  1.00 30.30     0.282 C 
HETATM    7  N1  MK1 B 902       8.639  42.127  23.935  1.00 28.25     0.146 N 
HETATM    8  C9  MK1 B 902       8.750  43.427  23.444  1.00 27.47     0.274 C 
HETATM    9  C8  MK1 B 902       9.712  44.343  24.173  1.00 26.24     0.133 C 
BRANCH   5  10
HETATM   10  C3  MK1 B 902      12.226  41.648  25.285  1.00 28.85     0.273 C 
HETATM   11  O1  MK1 B 902      12.915  41.666  26.297  1.00 29.59    -0.269 OA
HETATM   12  N2  MK1 B 902      12.612  41.058  24.170  1.00 22.29    -0.240 NA
BRANCH  12  13
HETATM   13  C4  MK1 B 902      13.778  40.283  23.891  1.00 23.47     0.088 C 
HETATM   14  C5  MK1 B 902      14.387  40.838  22.590  1.00 27.66     0.025 C 
HETATM   15  C6  MK1 B 902      13.519  38.927  23.762  1.00 21.71     0.025 C 
HETATM   16  C7  MK1 B 902      14.840  40.440  24.890  1.00 22.75     0.025 C 
ENDBRANCH  12  13
ENDBRANCH   5  10
BRANCH   7  17
HETATM   17  C31 MK1 B 902       7.772  41.243  23.147  1.00 36.25     0.278 C 
BRANCH  17  18
HETATM   18  C32 MK1 B 902       6.300  41.030  23.517  1.00 42.75     0.030 A 
HETATM   19  C33 MK1 B 902       5.495  40.051  22.918  1.00 47.41     0.097 A 
HETATM   20  N5  MK1 B 902       4.148  39.783  23.217  1.00 51.38    -0.243 NA
HETATM   21  C34 MK1 B 902       3.686  40.635  24.220  1.00 50.60     0.099 A 
HETATM   22  C35 MK1 B 902       4.434  41.629  24.857  1.00 49.34     0.020 A 
HETATM   23  C36 MK1 B 902       5.765  41.831  24.502  1.00 44.71     0.001 A 
ENDBRANCH  17  18
ENDBRANCH   7  17
ENDBRANCH   3   4
ENDBRANCH   2   3
BRANCH   2  24
HETATM   24  C12 MK1 B 902      13.365  46.155  24.014  1.00 21.49     0.045 C 
BRANCH  24  25
HETATM   25  C13 MK1 B 902      13.916  45.022  23.136  1.00 26.89     0.088 C 
BRANCH  25  26
HETATM   26  C14 MK1 B 902      14.382  45.525  21.758  1.00 28.67     0.036 C 
BRANCH  26  27
HETATM   27  C15 MK1 B 902      13.247  45.820  20.849  1.00 26.89    -0.022 A 
HETATM   28  C16 MK1 B 902      12.916  47.119  20.455  1.00 29.22    -0.004 A 
HETATM   29  C17 MK1 B 902      11.825  47.351  19.632  1.00 29.22    -0.000 A 
HETATM   30  C18 MK1 B 902      11.060  46.262  19.205  1.00 30.97    -0.000 A 
HETATM   31  C19 MK1 B 902      11.393  44.959  19.592  1.00 29.25    -0.000 A 
HETATM   32  C20 MK1 B 902      12.494  44.741  20.419  1.00 29.96    -0.004 A 
ENDBRANCH  26  27
ENDBRANCH  25  26
BRANCH  25  33
HETATM   33  C21 MK1 B 902      15.070  44.287  23.809  1.00 29.35     0.252 C 
HETATM   34  O3  MK1 B 902      15.016  43.994  25.013  1.00 32.66    -0.271 OA
HETATM   35  N4  MK1 B 902      16.149  44.108  23.052  1.00 31.19    -0.233 NA
BRANCH  35  36
HETATM   36  C22 MK1 B 902      17.429  43.732  23.629  1.00 29.22     0.159 C 
HETATM   37  C23 MK1 B 902      18.481  44.810  23.433  1.00 28.82     0.183 C 
HETATM   38  O4  MK1 B 902      18.275  45.480  22.198  1.00 28.32    -0.221 OA
HETATM   39  C24 MK1 B 902      19.808  44.092  23.527  1.00 32.05     0.061 C 
HETATM   40  C25 MK1 B 902      19.683  42.675  23.022  1.00 31.29    -0.022 A 
HETATM   41  C26 MK1 B 902      20.520  41.692  22.552  1.00 32.00    -0.004 A 
HETATM   42  C30 MK1 B 902      18.142  42.467  23.081  1.00 31.86    -0.001 A 
HETATM   43  C27 MK1 B 902      19.954  40.482  22.135  1.00 28.00    -0.000 A 
HETATM   44  C28 MK1 B 902      18.568  40.278  22.197  1.00 29.01    -0.000 A 
HETATM   45  C29 MK1 B 902      17.696  41.256  22.655  1.00 27.70    -0.003 A 
ENDBRANCH  35  36
ENDBRANCH  25  33
ENDBRANCH  24  25
ENDBRANCH   2  24
TORSDOF 12
ENDMDL
MODEL 2
REMARK VINA RESULT:    -6.176      2.153      9.769
REMARK INTER + INTRA:         -12.997
REMARK INTER:                 -10.381
REMARK INTRA:                  -2.616
REMARK UNBOUND:                -2.488
REMARK  12 active torsions:
REMARK  status: ('A' for Active; 'I' for Inactive)
REMARK    1  A    between atoms: N1_2  and  C31_40 
REMARK    2  A    between atoms: C2_4  and  C3_7 
REMARK       I    between atoms: N2_5  and  C3_7 
REMARK    3  A    between atoms: N2_5  and  C4_10 
REMARK    4  A    between atoms: N3_8  and  C10_19 
REMARK       I    between atoms: N4_11  and  C21_30 
REMARK    5  A    between atoms: N4_11  and  C22_31 
REMARK    6  A    between atoms: C10_19  and  C11_20 
REMARK    7  A    between atoms: C11_20  and  C12_21 
REMARK    8  A    between atoms: C12_21  and  C13_22 
REMARK    9  A    between atoms: C13_22  and  C14_23 
REMARK   10  A    between atoms: C13_22  and  C21_30 
REMARK   11  A    between atoms: C14_23  and  C15_24 
REMARK   12  A    between atoms: C31_40  and  C32_41 
ROOT
HETATM    1  O2  MK1 B 902      11.093  44.293  26.561  1.00 15.87    -0.221 OA
HETATM    2  C11 MK1 B 902      12.061  43.323  26.295  1.00 21.68     0.174 C 
ENDROOT
BRANCH   2   3
HETATM    3  C10 MK1 B 902      13.076  44.301  25.701  1.00 20.86     0.131 C 
BRANCH   3   4
HETATM    4  N3  MK1 B 902      14.363  43.708  25.396  1.00 28.91    -0.357 N 
HETATM    5  C2  MK1 B 902      15.346  44.541  24.618  1.00 27.27     0.192 C 
HETATM    6  C1  MK1 B 902      16.564  43.639  24.596  1.00 30.30     0.282 C 
HETATM    7  N1  MK1 B 902      17.198  43.164  25.856  1.00 28.25     0.146 N 
HETATM    8  C9  MK1 B 902      16.252  42.397  26.534  1.00 27.47     0.274 C 
HETATM    9  C8  MK1 B 902      14.843  42.952  26.581  1.00 26.24     0.133 C 
BRANCH   5  10
HETATM   10  C3  MK1 B 902      14.914  44.789  23.198  1.00 28.85     0.273 C 
HETATM   11  O1  MK1 B 902      15.646  44.480  22.266  1.00 29.59    -0.269 OA
HETATM   12  N2  MK1 B 902      13.738  45.358  23.021  1.00 22.29    -0.240 NA
BRANCH  12  13
HETATM   13  C4  MK1 B 902      13.028  45.658  21.820  1.00 23.47     0.088 C 
HETATM   14  C5  MK1 B 902      11.754  46.421  22.229  1.00 27.66     0.025 C 
HETATM   15  C6  MK1 B 902      12.699  44.533  21.080  1.00 21.71     0.025 C 
HETATM   16  C7  MK1 B 902      13.741  46.582  20.932  1.00 22.75     0.025 C 
ENDBRANCH  12  13
ENDBRANCH   5  10
BRANCH   7  17
HETATM   17  C31 MK1 B 902      18.526  42.549  25.749  1.00 36.25     0.278 C 
BRANCH  17  18
HETATM   18  C32 MK1 B 902      19.003  41.899  24.445  1.00 42.75     0.030 A 
HETATM   19  C33 MK1 B 902      18.562  40.639  24.013  1.00 47.41     0.097 A 
HETATM   20  N5  MK1 B 902      18.937  39.989  22.825  1.00 51.38    -0.243 NA
HETATM   21  C34 MK1 B 902      19.831  40.771  22.095  1.00 50.60     0.099 A 
HETATM   22  C35 MK1 B 902      20.310  42.031  22.467  1.00 49.34     0.020 A 
HETATM   23  C36 MK1 B 902      19.888  42.608  23.663  1.00 44.71     0.001 A 
ENDBRANCH  17  18
ENDBRANCH   7  17
ENDBRANCH   3   4
ENDBRANCH   2   3
BRANCH   2  24
HETATM   24  C12 MK1 B 902      11.392  42.186  25.502  1.00 21.49     0.045 C 
BRANCH  24  25
HETATM   25  C13 MK1 B 902      11.052  42.363  24.016  1.00 26.89     0.088 C 
BRANCH  25  26
HETATM   26  C14 MK1 B 902      11.184  41.048  23.227  1.00 28.67     0.036 C 
BRANCH  26  27
HETATM   27  C15 MK1 B 902      12.580  40.544  23.194  1.00 26.89    -0.022 A 
HETATM   28  C16 MK1 B 902      13.667  41.360  22.875  1.00 29.22    -0.004 A 
HETATM   29  C17 MK1 B 902      14.951  40.838  22.821  1.00 29.22    -0.000 A 
HETATM   30  C18 MK1 B 902      15.136  39.479  23.091  1.00 30.97    -0.000 A 
HETATM   31  C19 MK1 B 902      14.049  38.660  23.420  1.00 29.25    -0.000 A 
HETATM   32  C20 MK1 B 902      12.765  39.200  23.470  1.00 29.96    -0.004 A 
ENDBRANCH  26  27
ENDBRANCH  25  26
BRANCH  25  33
HETATM   33  C21 MK1 B 902       9.648  42.921  23.812  1.00 29.35     0.252 C 
HETATM   34  O3  MK1 B 902       9.469  43.951  23.144  1.00 32.66    -0.271 OA
HETATM   35  N4  MK1 B 902       8.685  42.304  24.491  1.00 31.19    -0.233 NA
BRANCH  35  36
HETATM   36  C22 MK1 B 902       7.373  42.904  24.666  1.00 29.22     0.159 C 
HETATM   37  C23 MK1 B 902       6.774  42.577  26.023  1.00 28.82     0.183 C 
HETATM   38  O4  MK1 B 902       7.171  41.278  26.436  1.00 28.32    -0.221 OA
HETATM   39  C24 MK1 B 902       5.281  42.734  25.846  1.00 32.05     0.061 C 
HETATM   40  C25 MK1 B 902       4.874  42.391  24.434  1.00 31.29    -0.022 A 
HETATM   41  C26 MK1 B 902       3.725  42.023  23.774  1.00 32.00    -0.004 A 
HETATM   42  C30 MK1 B 902       6.237  42.491  23.693  1.00 31.86    -0.001 A 
HETATM   43  C27 MK1 B 902       3.806  41.750  22.404  1.00 28.00    -0.000 A 
HETATM   44  C28 MK1 B 902       5.028  41.850  21.722  1.00 29.01    -0.000 A 
HETATM   45  C29 MK1 B 902       6.206  42.207  22.364  1.00 27.70    -0.003 A 
ENDBRANCH  35  36
ENDBRANCH  25  33
ENDBRANCH  24  25
ENDBRANCH   2  24
TORSDOF 12
ENDMDL
MODEL 3
REMARK VINA RESULT:    -6.123      1.573      2.454
REMARK INTER + INTRA:         -12.907
REMARK INTER:                 -10.353
REMARK INTRA:                  -2.555
REMARK UNBOUND:                -2.488
REMARK  12 active torsions:
REMARK  status: ('A' for Active; 'I' for Inactive)
REMARK    1  A    between atoms: N1_2  and  C31_40 
REMARK    2  A    between atoms: C2_4  and  C3_7 
REMARK       I    between atoms: N2_5  and  C3_7 
REMARK    3  A    between atoms: N2_5  and  C4_10 
REMARK    4  A    between atoms: N3_8  and  C10_19 
REMARK       I    between atoms: N4_11  and  C21_30 
REMARK    5  A    between atoms: N4_11  and  C22_31 
REMARK    6  A    between atoms: C10_19  and  C11_20 
REMARK    7  A    between atoms: C11_20  and  C12_21 
REMARK    8  A    between atoms: C12_21  and  C13_22 
REMARK    9  A    between atoms: C13_22  and  C14_23 
REMARK   10  A    between atoms: C13_22  and  C21_30 
REMARK   11  A    between atoms: C14_23  and  C15_24 
REMARK   12  A    between atoms: C31_40  and  C32_41 
ROOT
HETATM    1  O2  MK1 B 902      13.717  44.110  27.215  1.00 15.87    -0.221 OA
HETATM    2  C11 MK1 B 902      13.324  43.985  25.881  1.00 21.68     0.174 C 
ENDROOT
BRANCH   2   3
HETATM    3  C10 MK1 B 902      12.116  43.095  26.175  1.00 20.86     0.131 C 
BRANCH   3   4
HETATM    4  N3  MK1 B 902      11.128  43.067  25.115  1.00 28.91    -0.357 N 
HETATM    5  C2  MK1 B 902      10.816  41.734  24.490  1.00 27.27     0.192 C 
HETATM    6  C1  MK1 B 902       9.698  42.098  23.533  1.00 30.30     0.282 C 
HETATM    7  N1  MK1 B 902       8.441  42.731  24.016  1.00 28.25     0.146 N 
HETATM    8  C9  MK1 B 902       8.784  43.959  24.579  1.00 27.47     0.274 C 
HETATM    9  C8  MK1 B 902      10.007  43.973  25.473  1.00 26.24     0.133 C 
BRANCH   5  10
HETATM   10  C3  MK1 B 902      11.961  41.174  23.691  1.00 28.85     0.273 C 
HETATM   11  O1  MK1 B 902      12.067  41.432  22.498  1.00 29.59    -0.269 OA
HETATM   12  N2  MK1 B 902      12.814  40.398  24.330  1.00 22.29    -0.240 NA
BRANCH  12  13
HETATM   13  C4  MK1 B 902      14.019  39.781  23.879  1.00 23.47     0.088 C 
HETATM   14  C5  MK1 B 902      14.965  39.702  25.092  1.00 27.66     0.025 C 
HETATM   15  C6  MK1 B 902      14.628  40.462  22.836  1.00 21.71     0.025 C 
HETATM   16  C7  MK1 B 902      13.843  38.388  23.458  1.00 22.75     0.025 C 
ENDBRANCH  12  13
ENDBRANCH   5  10
BRANCH   7  17
HETATM   17  C31 MK1 B 902       7.310  42.777  23.082  1.00 36.25     0.278 C 
BRANCH  17  18
HETATM   18  C32 MK1 B 902       6.168  41.757  23.159  1.00 42.75     0.030 A 
HETATM   19  C33 MK1 B 902       4.840  42.114  23.436  1.00 47.41     0.097 A 
HETATM   20  N5  MK1 B 902       3.741  41.242  23.504  1.00 51.38    -0.243 NA
HETATM   21  C34 MK1 B 902       4.135  39.929  23.251  1.00 50.60     0.099 A 
HETATM   22  C35 MK1 B 902       5.437  39.506  22.969  1.00 49.34     0.020 A 
HETATM   23  C36 MK1 B 902       6.474  40.435  22.920  1.00 44.71     0.001 A 
ENDBRANCH  17  18
ENDBRANCH   7  17
ENDBRANCH   3   4
ENDBRANCH   2   3
BRANCH   2  24
HETATM   24  C12 MK1 B 902      14.549  43.538  25.064  1.00 21.49     0.045 C 
BRANCH  24  25
HETATM   25  C13 MK1 B 902      14.728  43.993  23.609  1.00 26.89     0.088 C 
BRANCH  25  26
HETATM   26  C14 MK1 B 902      14.096  45.372  23.347  1.00 28.67     0.036 C 
BRANCH  26  27
HETATM   27  C15 MK1 B 902      13.157  45.357  22.197  1.00 26.89    -0.022 A 
HETATM   28  C16 MK1 B 902      13.553  45.680  20.898  1.00 29.22    -0.004 A 
HETATM   29  C17 MK1 B 902      12.634  45.687  19.860  1.00 29.22    -0.000 A 
HETATM   30  C18 MK1 B 902      11.303  45.368  20.138  1.00 30.97    -0.000 A 
HETATM   31  C19 MK1 B 902      10.903  45.036  21.438  1.00 29.25    -0.000 A 
HETATM   32  C20 MK1 B 902      11.839  45.032  22.471  1.00 29.96    -0.004 A 
ENDBRANCH  26  27
ENDBRANCH  25  26
BRANCH  25  33
HETATM   33  C21 MK1 B 902      16.195  44.038  23.198  1.00 29.35     0.252 C 
HETATM   34  O3  MK1 B 902      16.633  44.980  22.521  1.00 32.66    -0.271 OA
HETATM   35  N4  MK1 B 902      16.906  42.958  23.508  1.00 31.19    -0.233 NA
BRANCH  35  36
HETATM   36  C22 MK1 B 902      18.205  42.704  22.908  1.00 29.22     0.159 C 
HETATM   37  C23 MK1 B 902      18.516  41.219  22.829  1.00 28.82     0.183 C 
HETATM   38  O4  MK1 B 902      17.950  40.538  23.940  1.00 28.32    -0.221 OA
HETATM   39  C24 MK1 B 902      20.023  41.131  22.759  1.00 32.05     0.061 C 
HETATM   40  C25 MK1 B 902      20.657  42.274  23.512  1.00 31.29    -0.022 A 
HETATM   41  C26 MK1 B 902      21.877  42.557  24.080  1.00 32.00    -0.004 A 
HETATM   42  C30 MK1 B 902      19.467  43.270  23.611  1.00 31.86    -0.001 A 
HETATM   43  C27 MK1 B 902      22.031  43.779  24.745  1.00 28.00    -0.000 A 
HETATM   44  C28 MK1 B 902      20.968  44.691  24.829  1.00 29.01    -0.000 A 
HETATM   45  C29 MK1 B 902      19.722  44.428  24.276  1.00 27.70    -0.003 A 
ENDBRANCH  35  36
ENDBRANCH  25  33
ENDBRANCH  24  25
ENDBRANCH   2  24
TORSDOF 12
ENDMDL
MODEL 4
REMARK VINA RESULT:    -6.044      2.465      8.039
REMARK INTER + INTRA:         -12.772
REMARK INTER:                  -9.512
REMARK INTRA:                  -3.261
REMARK UNBOUND:                -2.488
REMARK  12 active torsions:
REMARK  status: ('A' for Active; 'I' for Inactive)
REMARK    1  A    between atoms: N1_2  and  C31_40 
REMARK    2  A    between atoms: C2_4  and  C3_7 
REMARK       I    between atoms: N2_5  and  C3_7 
REMARK    3  A    between atoms: N2_5  and  C4_10 
REMARK    4  A    between atoms: N3_8  and  C10_19 
REMARK       I    between atoms: N4_11  and  C21_30 
REMARK    5  A    between atoms: N4_11  and  C22_31 
REMARK    6  A    between atoms: C10_19  and  C11_20 
REMARK    7  A    between atoms: C11_20  and  C12_21 
REMARK    8  A    between atoms: C12_21  and  C13_22 
REMARK    9  A    between atoms: C13_22  and  C14_23 
REMARK   10  A    between atoms: C13_22  and  C21_30 
REMARK   11  A    between atoms: C14_23  and  C15_24 
REMARK   12  A    between atoms: C31_40  and  C32_41 
ROOT
HETATM    1  O2  MK1 B 902      14.382  39.492  24.969  1.00 15.87    -0.221 OA
HETATM    2  C11 MK1 B 902      14.440  40.883  25.072  1.00 21.68     0.174 C 
ENDROOT
BRANCH   2   3
HETATM    3  C10 MK1 B 902      15.675  40.905  25.974  1.00 20.86     0.131 C 
BRANCH   3   4
HETATM    4  N3  MK1 B 902      16.409  42.154  25.944  1.00 28.91    -0.357 N 
HETATM    5  C2  MK1 B 902      16.606  42.813  24.605  1.00 27.27     0.192 C 
HETATM    6  C1  MK1 B 902      17.302  44.101  24.997  1.00 30.30     0.282 C 
HETATM    7  N1  MK1 B 902      16.675  45.064  25.942  1.00 28.25     0.146 N 
HETATM    8  C9  MK1 B 902      16.520  44.408  27.163  1.00 27.47     0.274 C 
HETATM    9  C8  MK1 B 902      15.998  42.987  27.102  1.00 26.24     0.133 C 
BRANCH   5  10
HETATM   10  C3  MK1 B 902      17.518  42.039  23.694  1.00 28.85     0.273 C 
HETATM   11  O1  MK1 B 902      17.099  41.594  22.632  1.00 29.59    -0.269 OA
HETATM   12  N2  MK1 B 902      18.759  41.859  24.102  1.00 22.29    -0.240 NA
BRANCH  12  13
HETATM   13  C4  MK1 B 902      19.866  41.239  23.447  1.00 23.47     0.088 C 
HETATM   14  C5  MK1 B 902      20.967  41.051  24.507  1.00 27.66     0.025 C 
HETATM   15  C6  MK1 B 902      20.350  41.970  22.374  1.00 21.71     0.025 C 
HETATM   16  C7  MK1 B 902      19.580  39.882  22.970  1.00 22.75     0.025 C 
ENDBRANCH  12  13
ENDBRANCH   5  10
BRANCH   7  17
HETATM   17  C31 MK1 B 902      17.273  46.401  26.035  1.00 36.25     0.278 C 
BRANCH  17  18
HETATM   18  C32 MK1 B 902      16.790  47.555  25.149  1.00 42.75     0.030 A 
HETATM   19  C33 MK1 B 902      17.408  47.898  23.937  1.00 47.41     0.097 A 
HETATM   20  N5  MK1 B 902      17.013  48.926  23.064  1.00 51.38    -0.243 NA
HETATM   21  C34 MK1 B 902      15.891  49.590  23.558  1.00 50.60     0.099 A 
HETATM   22  C35 MK1 B 902      15.230  49.300  24.755  1.00 49.34     0.020 A 
HETATM   23  C36 MK1 B 902      15.685  48.264  25.565  1.00 44.71     0.001 A 
ENDBRANCH  17  18
ENDBRANCH   7  17
ENDBRANCH   3   4
ENDBRANCH   2   3
BRANCH   2  24
HETATM   24  C12 MK1 B 902      13.049  41.388  25.498  1.00 21.49     0.045 C 
BRANCH  24  25
HETATM   25  C13 MK1 B 902      11.947  41.619  24.454  1.00 26.89     0.088 C 
BRANCH  25  26
HETATM   26  C14 MK1 B 902      10.782  42.455  25.012  1.00 28.67     0.036 C 
BRANCH  26  27
HETATM   27  C15 MK1 B 902       9.550  42.329  24.193  1.00 26.89    -0.022 A 
HETATM   28  C16 MK1 B 902       8.898  43.433  23.641  1.00 29.22    -0.004 A 
HETATM   29  C17 MK1 B 902       7.729  43.272  22.912  1.00 29.22    -0.000 A 
HETATM   30  C18 MK1 B 902       7.215  41.983  22.741  1.00 30.97    -0.000 A 
HETATM   31  C19 MK1 B 902       7.871  40.873  23.287  1.00 29.25    -0.000 A 
HETATM   32  C20 MK1 B 902       9.046  41.052  24.017  1.00 29.96    -0.004 A 
ENDBRANCH  26  27
ENDBRANCH  25  26
BRANCH  25  33
HETATM   33  C21 MK1 B 902      12.482  42.295  23.197  1.00 29.35     0.252 C 
HETATM   34  O3  MK1 B 902      12.766  41.625  22.192  1.00 32.66    -0.271 OA
HETATM   35  N4  MK1 B 902      12.727  43.597  23.311  1.00 31.19    -0.233 NA
BRANCH  35  36
HETATM   36  C22 MK1 B 902      13.534  44.308  22.334  1.00 29.22     0.159 C 
HETATM   37  C23 MK1 B 902      14.443  45.336  22.985  1.00 28.82     0.183 C 
HETATM   38  O4  MK1 B 902      13.814  45.895  24.129  1.00 28.32    -0.221 OA
HETATM   39  C24 MK1 B 902      14.747  46.343  21.899  1.00 32.05     0.061 C 
HETATM   40  C25 MK1 B 902      13.587  46.458  20.942  1.00 31.29    -0.022 A 
HETATM   41  C26 MK1 B 902      13.122  47.368  20.022  1.00 32.00    -0.004 A 
HETATM   42  C30 MK1 B 902      12.809  45.146  21.248  1.00 31.86    -0.001 A 
HETATM   43  C27 MK1 B 902      11.929  47.080  19.349  1.00 28.00    -0.000 A 
HETATM   44  C28 MK1 B 902      11.227  45.893  19.607  1.00 29.01    -0.000 A 
HETATM   45  C29 MK1 B 902      11.665  44.962  20.538  1.00 27.70    -0.003 A 
ENDBRANCH  35  36
ENDBRANCH  25  33
ENDBRANCH  24  25
ENDBRANCH   2  24
TORSDOF 12
ENDMDL
MODEL 5
REMARK VINA RESULT:    -6.040      2.102      3.746
REMARK INTER + INTRA:         -12.766
REMARK INTER:                  -9.537
REMARK INTRA:                  -3.229
REMARK UNBOUND:                -2.488
REMARK  12 active torsions:
REMARK  status: ('A' for Active; 'I' for Inactive)
REMARK    1  A    between atoms: N1_2  and  C31_40 
REMARK    2  A    between atoms: C2_4  and  C3_7 
REMARK       I    between atoms: N2_5  and  C3_7 
REMARK    3  A    between atoms: N2_5  and  C4_10 
REMARK    4  A    between atoms: N3_8  and  C10_19 
REMARK       I    between atoms: N4_11  and  C21_30 
REMARK    5  A    between atoms: N4_11  and  C22_31 
REMARK    6  A    between atoms: C10_19  and  C11_20 
REMARK    7  A    between atoms: C11_20  and  C12_21 
REMARK    8  A    between atoms: C12_21  and  C13_22 
REMARK    9  A    between atoms: C13_22  and  C14_23 
REMARK   10  A    between atoms: C13_22  and  C21_30 
REMARK   11  A    between atoms: C14_23  and  C15_24 
REMARK   12  A    between atoms: C31_40  and  C32_41 
ROOT
HETATM    1  O2  MK1 B 902      13.295  46.620  23.874  1.00 15.87    -0.221 OA
HETATM    2  C11 MK1 B 902      13.053  45.246  23.914  1.00 21.68     0.174 C 
ENDROOT
BRANCH   2   3
HETATM    3  C10 MK1 B 902      11.686  45.366  24.589  1.00 20.86     0.131 C 
BRANCH   3   4
HETATM    4  N3  MK1 B 902      10.981  44.108  24.731  1.00 28.91    -0.357 N 
HETATM    5  C2  MK1 B 902      10.523  43.719  26.111  1.00 27.27     0.192 C 
HETATM    6  C1  MK1 B 902       9.762  42.438  25.833  1.00 30.30     0.282 C 
HETATM    7  N1  MK1 B 902       8.606  42.413  24.896  1.00 28.25     0.146 N 
HETATM    8  C9  MK1 B 902       9.084  42.774  23.637  1.00 27.47     0.274 C 
HETATM    9  C8  MK1 B 902      10.045  43.944  23.591  1.00 26.24     0.133 C 
BRANCH   5  10
HETATM   10  C3  MK1 B 902      11.661  43.402  27.043  1.00 28.85     0.273 C 
HETATM   11  O1  MK1 B 902      11.881  44.115  28.015  1.00 29.59    -0.269 OA
HETATM   12  N2  MK1 B 902      12.396  42.348  26.752  1.00 22.29    -0.240 NA
BRANCH  12  13
HETATM   13  C4  MK1 B 902      13.484  41.755  27.462  1.00 23.47     0.088 C 
HETATM   14  C5  MK1 B 902      14.075  40.663  26.550  1.00 27.66     0.025 C 
HETATM   15  C6  MK1 B 902      13.112  41.213  28.683  1.00 21.71     0.025 C 
HETATM   16  C7  MK1 B 902      14.598  42.676  27.704  1.00 22.75     0.025 C 
ENDBRANCH  12  13
ENDBRANCH   5  10
BRANCH   7  17
HETATM   17  C31 MK1 B 902       7.755  41.217  24.911  1.00 36.25     0.278 C 
BRANCH  17  18
HETATM   18  C32 MK1 B 902       6.411  41.185  24.175  1.00 42.75     0.030 A 
HETATM   19  C33 MK1 B 902       5.388  42.115  24.408  1.00 47.41     0.097 A 
HETATM   20  N5  MK1 B 902       4.142  42.161  23.762  1.00 51.38    -0.243 NA
HETATM   21  C34 MK1 B 902       4.034  41.137  22.822  1.00 50.60     0.099 A 
HETATM   22  C35 MK1 B 902       5.013  40.179  22.541  1.00 49.34     0.020 A 
HETATM   23  C36 MK1 B 902       6.224  40.202  23.227  1.00 44.71     0.001 A 
ENDBRANCH  17  18
ENDBRANCH   7  17
ENDBRANCH   3   4
ENDBRANCH   2   3
BRANCH   2  24
HETATM   24  C12 MK1 B 902      14.276  44.565  24.553  1.00 21.49     0.045 C 
BRANCH  24  25
HETATM   25  C13 MK1 B 902      14.923  43.339  23.893  1.00 26.89     0.088 C 
BRANCH  25  26
HETATM   26  C14 MK1 B 902      14.063  42.771  22.749  1.00 28.67     0.036 C 
BRANCH  26  27
HETATM   27  C15 MK1 B 902      13.727  41.339  22.949  1.00 26.89    -0.022 A 
HETATM   28  C16 MK1 B 902      12.430  40.903  23.227  1.00 29.22    -0.004 A 
HETATM   29  C17 MK1 B 902      12.167  39.559  23.443  1.00 29.22    -0.000 A 
HETATM   30  C18 MK1 B 902      13.225  38.648  23.378  1.00 30.97    -0.000 A 
HETATM   31  C19 MK1 B 902      14.525  39.081  23.091  1.00 29.25    -0.000 A 
HETATM   32  C20 MK1 B 902      14.773  40.436  22.876  1.00 29.96    -0.004 A 
ENDBRANCH  26  27
ENDBRANCH  25  26
BRANCH  25  33
HETATM   33  C21 MK1 B 902      16.316  43.645  23.357  1.00 29.35     0.252 C 
HETATM   34  O3  MK1 B 902      16.507  44.618  22.611  1.00 32.66    -0.271 OA
HETATM   35  N4  MK1 B 902      17.249  42.741  23.645  1.00 31.19    -0.233 NA
BRANCH  35  36
HETATM   36  C22 MK1 B 902      18.522  42.713  22.946  1.00 29.22     0.159 C 
HETATM   37  C23 MK1 B 902      18.974  41.294  22.643  1.00 28.82     0.183 C 
HETATM   38  O4  MK1 B 902      18.557  40.414  23.676  1.00 28.32    -0.221 OA
HETATM   39  C24 MK1 B 902      20.474  41.381  22.480  1.00 32.05     0.061 C 
HETATM   40  C25 MK1 B 902      21.041  42.475  23.350  1.00 31.29    -0.022 A 
HETATM   41  C26 MK1 B 902      22.262  42.810  23.886  1.00 32.00    -0.004 A 
HETATM   42  C30 MK1 B 902      19.766  43.313  23.652  1.00 31.86    -0.001 A 
HETATM   43  C27 MK1 B 902      22.338  43.941  24.706  1.00 28.00    -0.000 A 
HETATM   44  C28 MK1 B 902      21.198  44.713  24.974  1.00 29.01    -0.000 A 
HETATM   45  C29 MK1 B 902      19.949  44.393  24.458  1.00 27.70    -0.003 A 
ENDBRANCH  35  36
ENDBRANCH  25  33
ENDBRANCH  24  25
ENDBRANCH   2  24
TORSDOF 12
ENDMDL
MODEL 6
REMARK VINA RESULT:    -5.992      1.841      3.760
REMARK INTER + INTRA:         -12.684
REMARK INTER:                 -10.100
REMARK INTRA:                  -2.583
REMARK UNBOUND:                -2.488
REMARK  12 active torsions:
REMARK  status: ('A' for Active; 'I' for Inactive)
REMARK    1  A    between atoms: N1_2  and  C31_40 
REMARK    2  A    between atoms: C2_4  and  C3_7 
REMARK       I    between atoms: N2_5  and  C3_7 
REMARK    3  A    between atoms: N2_5  and  C4_10 
REMARK    4  A    between atoms: N3_8  and  C10_19 
REMARK       I    between atoms: N4_11  and  C21_30 
REMARK    5  A    between atoms: N4_11  and  C22_31 
REMARK    6  A    between atoms: C10_19  and  C11_20 
REMARK    7  A    between atoms: C11_20  and  C12_21 
REMARK    8  A    between atoms: C12_21  and  C13_22 
REMARK    9  A    between atoms: C13_22  and  C14_23 
REMARK   10  A    between atoms: C13_22  and  C21_30 
REMARK   11  A    between atoms: C14_23  and  C15_24 
REMARK   12  A    between atoms: C31_40  and  C32_41 
ROOT
HETATM    1  O2  MK1 B 902      10.142  42.496  26.257  1.00 15.87    -0.221 OA
HETATM    2  C11 MK1 B 902      10.873  42.941  25.155  1.00 21.68     0.174 C 
ENDROOT
BRANCH   2   3
HETATM    3  C10 MK1 B 902      10.029  42.197  24.119  1.00 20.86     0.131 C 
BRANCH   3   4
HETATM    4  N3  MK1 B 902       8.613  42.500  24.180  1.00 28.91    -0.357 N 
HETATM    5  C2  MK1 B 902       8.130  43.716  23.435  1.00 27.27     0.192 C 
HETATM    6  C1  MK1 B 902       6.631  43.632  23.649  1.00 30.30     0.282 C 
HETATM    7  N1  MK1 B 902       5.854  42.439  23.218  1.00 28.25     0.146 N 
HETATM    8  C9  MK1 B 902       6.336  41.346  23.937  1.00 27.47     0.274 C 
HETATM    9  C8  MK1 B 902       7.841  41.237  24.070  1.00 26.24     0.133 C 
BRANCH   5  10
HETATM   10  C3  MK1 B 902       8.622  45.007  24.031  1.00 28.85     0.273 C 
HETATM   11  O1  MK1 B 902       8.327  45.310  25.181  1.00 29.59    -0.269 OA
HETATM   12  N2  MK1 B 902       9.358  45.780  23.258  1.00 22.29    -0.240 NA
BRANCH  12  13
HETATM   13  C4  MK1 B 902      10.021  47.012  23.545  1.00 23.47     0.088 C 
HETATM   14  C5  MK1 B 902      10.697  47.473  22.240  1.00 27.66     0.025 C 
HETATM   15  C6  MK1 B 902      10.956  46.909  24.562  1.00 21.71     0.025 C 
HETATM   16  C7  MK1 B 902       9.105  48.104  23.890  1.00 22.75     0.025 C 
ENDBRANCH  12  13
ENDBRANCH   5  10
BRANCH   7  17
HETATM   17  C31 MK1 B 902       4.392  42.563  23.193  1.00 36.25     0.278 C 
BRANCH  17  18
HETATM   18  C32 MK1 B 902       3.502  41.422  22.685  1.00 42.75     0.030 A 
HETATM   19  C33 MK1 B 902       3.360  41.111  21.325  1.00 47.41     0.097 A 
HETATM   20  N5  MK1 B 902       2.582  40.073  20.786  1.00 51.38    -0.243 NA
HETATM   21  C34 MK1 B 902       1.944  39.357  21.798  1.00 50.60     0.099 A 
HETATM   22  C35 MK1 B 902       2.042  39.614  23.168  1.00 49.34     0.020 A 
HETATM   23  C36 MK1 B 902       2.836  40.664  23.623  1.00 44.71     0.001 A 
ENDBRANCH  17  18
ENDBRANCH   7  17
ENDBRANCH   3   4
ENDBRANCH   2   3
BRANCH   2  24
HETATM   24  C12 MK1 B 902      12.362  42.655  25.423  1.00 21.49     0.045 C 
BRANCH  24  25
HETATM   25  C13 MK1 B 902      13.424  42.976  24.361  1.00 26.89     0.088 C 
BRANCH  25  26
HETATM   26  C14 MK1 B 902      13.533  44.486  24.083  1.00 28.67     0.036 C 
BRANCH  26  27
HETATM   27  C15 MK1 B 902      13.373  44.810  22.644  1.00 26.89    -0.022 A 
HETATM   28  C16 MK1 B 902      14.017  45.892  22.040  1.00 29.22    -0.004 A 
HETATM   29  C17 MK1 B 902      13.809  46.180  20.699  1.00 29.22    -0.000 A 
HETATM   30  C18 MK1 B 902      12.942  45.368  19.964  1.00 30.97    -0.000 A 
HETATM   31  C19 MK1 B 902      12.301  44.278  20.563  1.00 29.25    -0.000 A 
HETATM   32  C20 MK1 B 902      12.520  44.001  21.912  1.00 29.96    -0.004 A 
ENDBRANCH  26  27
ENDBRANCH  25  26
BRANCH  25  33
HETATM   33  C21 MK1 B 902      14.799  42.445  24.748  1.00 29.35     0.252 C 
HETATM   34  O3  MK1 B 902      14.970  41.862  25.830  1.00 32.66    -0.271 OA
HETATM   35  N4  MK1 B 902      15.787  42.761  23.916  1.00 31.19    -0.233 NA
BRANCH  35  36
HETATM   36  C22 MK1 B 902      17.181  42.622  24.301  1.00 29.22     0.159 C 
HETATM   37  C23 MK1 B 902      17.873  43.968  24.430  1.00 28.82     0.183 C 
HETATM   38  O4  MK1 B 902      17.346  44.886  23.484  1.00 28.32    -0.221 OA
HETATM   39  C24 MK1 B 902      19.345  43.677  24.248  1.00 32.05     0.061 C 
HETATM   40  C25 MK1 B 902      19.544  42.505  23.318  1.00 31.29    -0.022 A 
HETATM   41  C26 MK1 B 902      20.551  41.998  22.531  1.00 32.00    -0.004 A 
HETATM   42  C30 MK1 B 902      18.135  41.847  23.354  1.00 31.86    -0.001 A 
HETATM   43  C27 MK1 B 902      20.283  40.858  21.764  1.00 28.00    -0.000 A 
HETATM   44  C28 MK1 B 902      19.020  40.249  21.800  1.00 29.01    -0.000 A 
HETATM   45  C29 MK1 B 902      17.981  40.744  22.575  1.00 27.70    -0.003 A 
ENDBRANCH  35  36
ENDBRANCH  25  33
ENDBRANCH  24  25
ENDBRANCH   2  24
TORSDOF 12
ENDMDL
MODEL 7
REMARK VINA RESULT:    -5.900      2.638      8.248
REMARK INTER + INTRA:         -12.527
REMARK INTER:                  -9.363
REMARK INTRA:                  -3.163
REMARK UNBOUND:                -2.488
REMARK  12 active torsions:
REMARK  status: ('A' for Active; 'I' for Inactive)
REMARK    1  A    between atoms: N1_2  and  C31_40 
REMARK    2  A    between atoms: C2_4  and  C3_7 
REMARK       I    between atoms: N2_5  and  C3_7 
REMARK    3  A    between atoms: N2_5  and  C4_10 
REMARK    4  A    between atoms: N3_8  and  C10_19 
REMARK       I    between atoms: N4_11  and  C21_30 
REMARK    5  A    between atoms: N4_11  and  C22_31 
REMARK    6  A    between atoms: C10_19  and  C11_20 
REMARK    7  A    between atoms: C11_20  and  C12_21 
REMARK    8  A    between atoms: C12_21  and  C13_22 
REMARK    9  A    between atoms: C13_22  and  C14_23 
REMARK   10  A    between atoms: C13_22  and  C21_30 
REMARK   11  A    between atoms: C14_23  and  C15_24 
REMARK   12  A    between atoms: C31_40  and  C32_41 
ROOT
HETATM    1  O2  MK1 B 902      11.482  45.510  25.308  1.00 15.87    -0.221 OA
HETATM    2  C11 MK1 B 902      12.444  44.505  25.421  1.00 21.68     0.174 C 
ENDROOT
BRANCH   2   3
HETATM    3  C10 MK1 B 902      13.629  45.463  25.554  1.00 20.86     0.131 C 
BRANCH   3   4
HETATM    4  N3  MK1 B 902      14.583  45.382  24.466  1.00 28.91    -0.357 N 
HETATM    5  C2  MK1 B 902      14.620  46.526  23.488  1.00 27.27     0.192 C 
HETATM    6  C1  MK1 B 902      15.779  46.129  22.595  1.00 30.30     0.282 C 
HETATM    7  N1  MK1 B 902      17.140  45.900  23.149  1.00 28.25     0.146 N 
HETATM    8  C9  MK1 B 902      17.051  44.832  24.041  1.00 27.47     0.274 C 
HETATM    9  C8  MK1 B 902      15.863  44.836  24.981  1.00 26.24     0.133 C 
BRANCH   5  10
HETATM   10  C3  MK1 B 902      13.379  46.621  22.643  1.00 28.85     0.273 C 
HETATM   11  O1  MK1 B 902      12.584  47.537  22.812  1.00 29.59    -0.269 OA
HETATM   12  N2  MK1 B 902      13.196  45.676  21.742  1.00 22.29    -0.240 NA
BRANCH  12  13
HETATM   13  C4  MK1 B 902      12.174  45.523  20.757  1.00 23.47     0.088 C 
HETATM   14  C5  MK1 B 902      12.210  46.783  19.872  1.00 27.66     0.025 C 
HETATM   15  C6  MK1 B 902      10.909  45.352  21.300  1.00 21.71     0.025 C 
HETATM   16  C7  MK1 B 902      12.414  44.414  19.829  1.00 22.75     0.025 C 
ENDBRANCH  12  13
ENDBRANCH   5  10
BRANCH   7  17
HETATM   17  C31 MK1 B 902      18.249  45.811  22.192  1.00 36.25     0.278 C 
BRANCH  17  18
HETATM   18  C32 MK1 B 902      19.694  45.605  22.661  1.00 42.75     0.030 A 
HETATM   19  C33 MK1 B 902      20.375  46.527  23.468  1.00 47.41     0.097 A 
HETATM   20  N5  MK1 B 902      21.688  46.399  23.952  1.00 51.38    -0.243 NA
HETATM   21  C34 MK1 B 902      22.258  45.202  23.523  1.00 50.60     0.099 A 
HETATM   22  C35 MK1 B 902      21.637  44.242  22.720  1.00 49.34     0.020 A 
HETATM   23  C36 MK1 B 902      20.331  44.444  22.281  1.00 44.71     0.001 A 
ENDBRANCH  17  18
ENDBRANCH   7  17
ENDBRANCH   3   4
ENDBRANCH   2   3
BRANCH   2  24
HETATM   24  C12 MK1 B 902      12.252  43.526  24.249  1.00 21.49     0.045 C 
BRANCH  24  25
HETATM   25  C13 MK1 B 902      11.952  42.043  24.510  1.00 26.89     0.088 C 
BRANCH  25  26
HETATM   26  C14 MK1 B 902      10.867  41.493  23.567  1.00 28.67     0.036 C 
BRANCH  26  27
HETATM   27  C15 MK1 B 902       9.514  41.534  24.175  1.00 26.89    -0.022 A 
HETATM   28  C16 MK1 B 902       9.276  42.059  25.446  1.00 29.22    -0.004 A 
HETATM   29  C17 MK1 B 902       8.000  42.045  25.990  1.00 29.22    -0.000 A 
HETATM   30  C18 MK1 B 902       6.957  41.493  25.242  1.00 30.97    -0.000 A 
HETATM   31  C19 MK1 B 902       7.190  40.973  23.963  1.00 29.25    -0.000 A 
HETATM   32  C20 MK1 B 902       8.478  40.995  23.430  1.00 29.96    -0.004 A 
ENDBRANCH  26  27
ENDBRANCH  25  26
BRANCH  25  33
HETATM   33  C21 MK1 B 902      13.200  41.177  24.384  1.00 29.35     0.252 C 
HETATM   34  O3  MK1 B 902      13.157  40.091  23.786  1.00 32.66    -0.271 OA
HETATM   35  N4  MK1 B 902      14.264  41.609  25.056  1.00 31.19    -0.233 NA
BRANCH  35  36
HETATM   36  C22 MK1 B 902      15.406  40.747  25.309  1.00 29.22     0.159 C 
HETATM   37  C23 MK1 B 902      15.977  40.952  26.701  1.00 28.82     0.183 C 
HETATM   38  O4  MK1 B 902      15.839  42.309  27.096  1.00 28.32    -0.221 OA
HETATM   39  C24 MK1 B 902      17.411  40.481  26.616  1.00 32.05     0.061 C 
HETATM   40  C25 MK1 B 902      17.967  40.718  25.234  1.00 31.29    -0.022 A 
HETATM   41  C26 MK1 B 902      19.205  40.829  24.647  1.00 32.00    -0.004 A 
HETATM   42  C30 MK1 B 902      16.661  40.902  24.409  1.00 31.86    -0.001 A 
HETATM   43  C27 MK1 B 902      19.268  41.101  23.276  1.00 28.00    -0.000 A 
HETATM   44  C28 MK1 B 902      18.096  41.256  22.520  1.00 29.01    -0.000 A 
HETATM   45  C29 MK1 B 902      16.833  41.161  23.086  1.00 27.70    -0.003 A 
ENDBRANCH  35  36
ENDBRANCH  25  33
ENDBRANCH  24  25
ENDBRANCH   2  24
TORSDOF 12
ENDMDL
MODEL 8
REMARK VINA RESULT:    -5.822      2.334      9.765
REMARK INTER + INTRA:         -12.394
REMARK INTER:                  -9.943
REMARK INTRA:                  -2.450
REMARK UNBOUND:                -2.488
REMARK  12 active torsions:
REMARK  status: ('A' for Active; 'I' for Inactive)
REMARK    1  A    between atoms: N1_2  and  C31_40 
REMARK    2  A    between atoms: C2_4  and  C3_7 
REMARK       I    between atoms: N2_5  and  C3_7 
REMARK    3  A    between atoms: N2_5  and  C4_10 
REMARK    4  A    between atoms: N3_8  and  C10_19 
REMARK       I    between atoms: N4_11  and  C21_30 
REMARK    5  A    between atoms: N4_11  and  C22_31 
REMARK    6  A    between atoms: C10_19  and  C11_20 
REMARK    7  A    between atoms: C11_20  and  C12_21 
REMARK    8  A    between atoms: C12_21  and  C13_22 
REMARK    9  A    between atoms: C13_22  and  C14_23 
REMARK   10  A    between atoms: C13_22  and  C21_30 
REMARK   11  A    between atoms: C14_23  and  C15_24 
REMARK   12  A    between atoms: C31_40  and  C32_41 
ROOT
HETATM    1  O2  MK1 B 902      10.927  44.373  25.885  1.00 15.87    -0.221 OA
HETATM    2  C11 MK1 B 902      11.834  43.378  26.252  1.00 21.68     0.174 C 
ENDROOT
BRANCH   2   3
HETATM    3  C10 MK1 B 902      13.040  44.314  26.337  1.00 20.86     0.131 C 
BRANCH   3   4
HETATM    4  N3  MK1 B 902      14.039  44.090  25.312  1.00 28.91    -0.357 N 
HETATM    5  C2  MK1 B 902      14.433  45.264  24.456  1.00 27.27     0.192 C 
HETATM    6  C1  MK1 B 902      15.538  44.667  23.607  1.00 30.30     0.282 C 
HETATM    7  N1  MK1 B 902      16.752  44.069  24.225  1.00 28.25     0.146 N 
HETATM    8  C9  MK1 B 902      16.334  42.988  25.000  1.00 27.47     0.274 C 
HETATM    9  C8  MK1 B 902      15.103  43.208  25.855  1.00 26.24     0.133 C 
BRANCH   5  10
HETATM   10  C3  MK1 B 902      13.330  45.725  23.543  1.00 28.85     0.273 C 
HETATM   11  O1  MK1 B 902      12.542  46.588  23.913  1.00 29.59    -0.269 OA
HETATM   12  N2  MK1 B 902      13.254  45.151  22.359  1.00 22.29    -0.240 NA
BRANCH  12  13
HETATM   13  C4  MK1 B 902      12.380  45.411  21.261  1.00 23.47     0.088 C 
HETATM   14  C5  MK1 B 902      12.602  44.285  20.233  1.00 27.66     0.025 C 
HETATM   15  C6  MK1 B 902      12.589  46.648  20.672  1.00 21.71     0.025 C 
HETATM   16  C7  MK1 B 902      10.958  45.317  21.607  1.00 22.75     0.025 C 
ENDBRANCH  12  13
ENDBRANCH   5  10
BRANCH   7  17
HETATM   17  C31 MK1 B 902      17.888  43.788  23.339  1.00 36.25     0.278 C 
BRANCH  17  18
HETATM   18  C32 MK1 B 902      18.532  42.398  23.283  1.00 42.75     0.030 A 
HETATM   19  C33 MK1 B 902      18.075  41.377  22.435  1.00 47.41     0.097 A 
HETATM   20  N5  MK1 B 902      18.623  40.089  22.314  1.00 51.38    -0.243 NA
HETATM   21  C34 MK1 B 902      19.718  39.936  23.164  1.00 50.60     0.099 A 
HETATM   22  C35 MK1 B 902      20.223  40.909  24.031  1.00 49.34     0.020 A 
HETATM   23  C36 MK1 B 902      19.622  42.164  24.092  1.00 44.71     0.001 A 
ENDBRANCH  17  18
ENDBRANCH   7  17
ENDBRANCH   3   4
ENDBRANCH   2   3
BRANCH   2  24
HETATM   24  C12 MK1 B 902      11.707  42.222  25.244  1.00 21.49     0.045 C 
BRANCH  24  25
HETATM   25  C13 MK1 B 902      10.684  42.290  24.101  1.00 26.89     0.088 C 
BRANCH  25  26
HETATM   26  C14 MK1 B 902      11.270  41.802  22.764  1.00 28.67     0.036 C 
BRANCH  26  27
HETATM   27  C15 MK1 B 902      12.474  40.953  22.949  1.00 26.89    -0.022 A 
HETATM   28  C16 MK1 B 902      12.402  39.627  23.379  1.00 29.22    -0.004 A 
HETATM   29  C17 MK1 B 902      13.555  38.883  23.573  1.00 29.22    -0.000 A 
HETATM   30  C18 MK1 B 902      14.793  39.485  23.330  1.00 30.97    -0.000 A 
HETATM   31  C19 MK1 B 902      14.869  40.812  22.890  1.00 29.25    -0.000 A 
HETATM   32  C20 MK1 B 902      13.700  41.547  22.700  1.00 29.96    -0.004 A 
ENDBRANCH  26  27
ENDBRANCH  25  26
BRANCH  25  33
HETATM   33  C21 MK1 B 902       9.425  41.488  24.410  1.00 29.35     0.252 C 
HETATM   34  O3  MK1 B 902       9.162  40.456  23.775  1.00 32.66    -0.271 OA
HETATM   35  N4  MK1 B 902       8.602  42.039  25.298  1.00 31.19    -0.233 NA
BRANCH  35  36
HETATM   36  C22 MK1 B 902       7.232  41.580  25.453  1.00 29.22     0.159 C 
HETATM   37  C23 MK1 B 902       6.248  42.464  24.707  1.00 28.82     0.183 C 
HETATM   38  O4  MK1 B 902       6.693  43.812  24.714  1.00 28.32    -0.221 OA
HETATM   39  C24 MK1 B 902       4.920  42.252  25.399  1.00 32.05     0.061 C 
HETATM   40  C25 MK1 B 902       5.127  41.954  26.864  1.00 31.29    -0.022 A 
HETATM   41  C26 MK1 B 902       4.385  42.007  28.020  1.00 32.00    -0.004 A 
HETATM   42  C30 MK1 B 902       6.625  41.538  26.880  1.00 31.86    -0.001 A 
HETATM   43  C27 MK1 B 902       5.009  41.661  29.224  1.00 28.00    -0.000 A 
HETATM   44  C28 MK1 B 902       6.357  41.271  29.249  1.00 29.01    -0.000 A 
HETATM   45  C29 MK1 B 902       7.134  41.220  28.100  1.00 27.70    -0.003 A 
ENDBRANCH  35  36
ENDBRANCH  25  33
ENDBRANCH  24  25
ENDBRANCH   2  24
TORSDOF 12
ENDMDL
MODEL 9
REMARK VINA RESULT:    -5.744      2.558      4.701
REMARK INTER + INTRA:         -12.261
REMARK INTER:                 -10.554
REMARK INTRA:                  -1.707
REMARK UNBOUND:                -2.488
REMARK  12 active torsions:
REMARK  status: ('A' for Active; 'I' for Inactive)
REMARK    1  A    between atoms: N1_2  and  C31_40 
REMARK    2  A    between atoms: C2_4  and  C3_7 
REMARK       I    between atoms: N2_5  and  C3_7 
REMARK    3  A    between atoms: N2_5  and  C4_10 
REMARK    4  A    between atoms: N3_8  and  C10_19 
REMARK       I    between atoms: N4_11  and  C21_30 
REMARK    5  A    between atoms: N4_11  and  C22_31 
REMARK    6  A    between atoms: C10_19  and  C11_20 
REMARK    7  A    between atoms: C11_20  and  C12_21 
REMARK    8  A    between atoms: C12_21  and  C13_22 
REMARK    9  A    between atoms: C13_22  and  C14_23 
REMARK   10  A    between atoms: C13_22  and  C21_30 
REMARK   11  A    between atoms: C14_23  and  C15_24 
REMARK   12  A    between atoms: C31_40  and  C32_41 
ROOT
HETATM    1  O2  MK1 B 902       9.619  41.580  25.246  1.00 15.87    -0.221 OA
HETATM    2  C11 MK1 B 902      10.150  42.284  24.164  1.00 21.68     0.174 C 
ENDROOT
BRANCH   2   3
HETATM    3  C10 MK1 B 902       8.816  42.888  23.724  1.00 20.86     0.131 C 
BRANCH   3   4
HETATM    4  N3  MK1 B 902       7.660  42.077  24.051  1.00 28.91    -0.357 N 
HETATM    5  C2  MK1 B 902       6.521  42.748  24.769  1.00 27.27     0.192 C 
HETATM    6  C1  MK1 B 902       5.497  41.632  24.832  1.00 30.30     0.282 C 
HETATM    7  N1  MK1 B 902       4.992  40.974  23.597  1.00 28.25     0.146 N 
HETATM    8  C9  MK1 B 902       6.082  40.366  22.974  1.00 27.47     0.274 C 
HETATM    9  C8  MK1 B 902       7.359  41.178  22.909  1.00 26.24     0.133 C 
BRANCH   5  10
HETATM   10  C3  MK1 B 902       6.867  43.155  26.175  1.00 28.85     0.273 C 
HETATM   11  O1  MK1 B 902       7.144  44.320  26.432  1.00 29.59    -0.269 OA
HETATM   12  N2  MK1 B 902       6.869  42.205  27.089  1.00 22.29    -0.240 NA
BRANCH  12  13
HETATM   13  C4  MK1 B 902       7.084  42.278  28.499  1.00 23.47     0.088 C 
HETATM   14  C5  MK1 B 902       6.942  40.848  29.051  1.00 27.66     0.025 C 
HETATM   15  C6  MK1 B 902       6.205  43.134  29.145  1.00 21.71     0.025 C 
HETATM   16  C7  MK1 B 902       8.446  42.680  28.863  1.00 22.75     0.025 C 
ENDBRANCH  12  13
ENDBRANCH   5  10
BRANCH   7  17
HETATM   17  C31 MK1 B 902       3.804  40.122  23.727  1.00 36.25     0.278 C 
BRANCH  17  18
HETATM   18  C32 MK1 B 902       2.516  40.425  22.954  1.00 42.75     0.030 A 
HETATM   19  C33 MK1 B 902       2.321  41.608  22.226  1.00 47.41     0.097 A 
HETATM   20  N5  MK1 B 902       1.180  41.947  21.480  1.00 51.38    -0.243 NA
HETATM   21  C34 MK1 B 902       0.226  40.931  21.545  1.00 50.60     0.099 A 
HETATM   22  C35 MK1 B 902       0.357  39.731  22.250  1.00 49.34     0.020 A 
HETATM   23  C36 MK1 B 902       1.522  39.470  22.967  1.00 44.71     0.001 A 
ENDBRANCH  17  18
ENDBRANCH   7  17
ENDBRANCH   3   4
ENDBRANCH   2   3
BRANCH   2  24
HETATM   24  C12 MK1 B 902      10.975  41.300  23.315  1.00 21.49     0.045 C 
BRANCH  24  25
HETATM   25  C13 MK1 B 902      12.347  41.707  22.758  1.00 26.89     0.088 C 
BRANCH  25  26
HETATM   26  C14 MK1 B 902      12.723  43.152  23.133  1.00 28.67     0.036 C 
BRANCH  26  27
HETATM   27  C15 MK1 B 902      12.326  44.130  22.089  1.00 26.89    -0.022 A 
HETATM   28  C16 MK1 B 902      12.674  43.980  20.745  1.00 29.22    -0.004 A 
HETATM   29  C17 MK1 B 902      12.313  44.937  19.810  1.00 29.22    -0.000 A 
HETATM   30  C18 MK1 B 902      11.594  46.057  20.237  1.00 30.97    -0.000 A 
HETATM   31  C19 MK1 B 902      11.236  46.207  21.582  1.00 29.25    -0.000 A 
HETATM   32  C20 MK1 B 902      11.607  45.235  22.510  1.00 29.96    -0.004 A 
ENDBRANCH  26  27
ENDBRANCH  25  26
BRANCH  25  33
HETATM   33  C21 MK1 B 902      13.456  40.772  23.227  1.00 29.35     0.252 C 
HETATM   34  O3  MK1 B 902      13.220  39.575  23.449  1.00 32.66    -0.271 OA
HETATM   35  N4  MK1 B 902      14.621  41.357  23.490  1.00 31.19    -0.233 NA
BRANCH  35  36
HETATM   36  C22 MK1 B 902      15.659  40.679  24.248  1.00 29.22     0.159 C 
HETATM   37  C23 MK1 B 902      15.816  41.256  25.644  1.00 28.82     0.183 C 
HETATM   38  O4  MK1 B 902      15.554  42.652  25.631  1.00 28.32    -0.221 OA
HETATM   39  C24 MK1 B 902      17.223  40.900  26.066  1.00 32.05     0.061 C 
HETATM   40  C25 MK1 B 902      18.139  40.846  24.869  1.00 31.29    -0.022 A 
HETATM   41  C26 MK1 B 902      19.491  40.917  24.626  1.00 32.00    -0.004 A 
HETATM   42  C30 MK1 B 902      17.113  40.719  23.707  1.00 31.86    -0.001 A 
HETATM   43  C27 MK1 B 902      19.930  40.859  23.299  1.00 28.00    -0.000 A 
HETATM   44  C28 MK1 B 902      19.014  40.730  22.244  1.00 29.01    -0.000 A 
HETATM   45  C29 MK1 B 902      17.644  40.668  22.457  1.00 27.70    -0.003 A 
ENDBRANCH  35  36
ENDBRANCH  25  33
ENDBRANCH  24  25
ENDBRANCH   2  24
TORSDOF 12
ENDMDL
