MODEL 1
REMARK VINA RESULT:    -5.879      0.000      0.000
REMARK INTER + INTRA:         -13.653
REMARK INTER:                 -10.003
REMARK INTRA:                  -3.650
REMARK UNBOUND:                -3.650
REMARK  12 active torsions:
REMARK  status: ('A' for Active; 'I' for Inactive)
REMARK    1  A    between atoms: N1_2  and  C31_40 
REMARK    2  A    between atoms: C2_4  and  C3_7 
REMARK       I    between atoms: N2_5  and  C3_7 
REMARK    3  A    between atoms: N2_5  and  C4_10 
REMARK    4  A    between atoms: N3_8  and  C10_19 
REMARK       I    between atoms: N4_11  and  C21_30 
REMARK    5  A    between atoms: N4_11  and  C22_31 
REMARK    6  A    between atoms: C10_19  and  C11_20 
REMARK    7  A    between atoms: C11_20  and  C12_21 
REMARK    8  A    between atoms: C12_21  and  C13_22 
REMARK    9  A    between atoms: C13_22  and  C14_23 
REMARK   10  A    between atoms: C13_22  and  C21_30 
REMARK   11  A    between atoms: C14_23  and  C15_24 
REMARK   12  A    between atoms: C31_40  and  C32_41 
ROOT
HETATM    1  O2  MK1 B 902      32.330  16.828  -4.104  1.00 15.87    -0.221 OA
HETATM    2  C11 MK1 B 902      31.804  17.556  -5.173  1.00 21.68     0.174 C 
ENDROOT
BRANCH   2   3
HETATM    3  C10 MK1 B 902      32.405  16.662  -6.259  1.00 20.86     0.131 C 
BRANCH   3   4
HETATM    4  N3  MK1 B 902      31.883  16.910  -7.588  1.00 28.91    -0.357 N 
HETATM    5  C2  MK1 B 902      30.415  17.221  -7.711  1.00 27.27     0.192 C 
HETATM    6  C1  MK1 B 902      30.287  17.513  -9.193  1.00 30.30     0.282 C 
HETATM    7  N1  MK1 B 902      31.083  18.590  -9.842  1.00 28.25     0.146 N 
HETATM    8  C9  MK1 B 902      32.429  18.253  -9.703  1.00 27.47     0.274 C 
HETATM    9  C8  MK1 B 902      32.858  17.733  -8.346  1.00 26.24     0.133 C 
BRANCH   5  10
HETATM   10  C3  MK1 B 902      29.534  16.048  -7.381  1.00 28.85     0.273 C 
HETATM   11  O1  MK1 B 902      29.867  14.914  -7.703  1.00 29.59    -0.269 OA
HETATM   12  N2  MK1 B 902      28.403  16.306  -6.754  1.00 22.29    -0.240 NA
BRANCH  12  13
HETATM   13  C4  MK1 B 902      27.402  15.422  -6.251  1.00 23.47     0.088 C 
HETATM   14  C5  MK1 B 902      28.027  14.665  -5.063  1.00 27.66     0.025 C 
HETATM   15  C6  MK1 B 902      26.932  14.526  -7.199  1.00 21.71     0.025 C 
HETATM   16  C7  MK1 B 902      26.243  16.113  -5.678  1.00 22.75     0.025 C 
ENDBRANCH  12  13
ENDBRANCH   5  10
BRANCH   7  17
HETATM   17  C31 MK1 B 902      30.687  18.996 -11.195  1.00 36.25     0.278 C 
BRANCH  17  18
HETATM   18  C32 MK1 B 902      30.556  20.475 -11.579  1.00 42.75     0.030 A 
HETATM   19  C33 MK1 B 902      30.338  20.907 -12.895  1.00 47.41     0.097 A 
HETATM   20  N5  MK1 B 902      30.189  22.238 -13.320  1.00 51.38    -0.243 NA
HETATM   21  C34 MK1 B 902      30.282  23.115 -12.240  1.00 50.60     0.099 A 
HETATM   22  C35 MK1 B 902      30.498  22.751 -10.908  1.00 49.34     0.020 A 
HETATM   23  C36 MK1 B 902      30.636  21.408 -10.568  1.00 44.71     0.001 A 
ENDBRANCH  17  18
ENDBRANCH   7  17
ENDBRANCH   3   4
ENDBRANCH   2   3
BRANCH   2  24
HETATM   24  C12 MK1 B 902      32.173  19.036  -4.969  1.00 21.49     0.045 C 
BRANCH  24  25
HETATM   25  C13 MK1 B 902      31.126  20.139  -5.180  1.00 26.89     0.088 C 
BRANCH  25  26
HETATM   26  C14 MK1 B 902      30.894  20.446  -6.670  1.00 28.67     0.036 C 
BRANCH  26  27
HETATM   27  C15 MK1 B 902      31.633  21.651  -7.123  1.00 26.89    -0.022 A 
HETATM   28  C16 MK1 B 902      31.051  22.920  -7.165  1.00 29.22    -0.004 A 
HETATM   29  C17 MK1 B 902      31.768  24.012  -7.629  1.00 29.22    -0.000 A 
HETATM   30  C18 MK1 B 902      33.085  23.820  -8.057  1.00 30.97    -0.000 A 
HETATM   31  C19 MK1 B 902      33.674  22.551  -8.009  1.00 29.25    -0.000 A 
HETATM   32  C20 MK1 B 902      32.940  21.463  -7.539  1.00 29.96    -0.004 A 
ENDBRANCH  26  27
ENDBRANCH  25  26
BRANCH  25  33
HETATM   33  C21 MK1 B 902      29.790  19.792  -4.534  1.00 29.35     0.252 C 
HETATM   34  O3  MK1 B 902      28.803  19.517  -5.234  1.00 32.66    -0.271 OA
HETATM   35  N4  MK1 B 902      29.744  19.929  -3.212  1.00 31.19    -0.233 NA
BRANCH  35  36
HETATM   36  C22 MK1 B 902      28.480  19.960  -2.494  1.00 29.22     0.159 C 
HETATM   37  C23 MK1 B 902      28.556  20.821  -1.245  1.00 28.82     0.183 C 
HETATM   38  O4  MK1 B 902      29.853  20.743  -0.671  1.00 28.32    -0.221 OA
HETATM   39  C24 MK1 B 902      27.455  20.311  -0.344  1.00 32.05     0.061 C 
HETATM   40  C25 MK1 B 902      27.230  18.835  -0.562  1.00 31.29    -0.022 A 
HETATM   41  C26 MK1 B 902      26.669  17.786   0.127  1.00 32.00    -0.004 A 
HETATM   42  C30 MK1 B 902      27.911  18.626  -1.944  1.00 31.86    -0.001 A 
HETATM   43  C27 MK1 B 902      26.711  16.514  -0.455  1.00 28.00    -0.000 A 
HETATM   44  C28 MK1 B 902      27.310  16.315  -1.708  1.00 29.01    -0.000 A 
HETATM   45  C29 MK1 B 902      27.895  17.353  -2.420  1.00 27.70    -0.003 A 
ENDBRANCH  35  36
ENDBRANCH  25  33
ENDBRANCH  24  25
ENDBRANCH   2  24
TORSDOF 12
ENDMDL
MODEL 2
REMARK VINA RESULT:    -5.874     13.921     17.494
REMARK INTER + INTRA:         -13.644
REMARK INTER:                 -11.413
REMARK INTRA:                  -2.231
REMARK UNBOUND:                -3.650
REMARK  12 active torsions:
REMARK  status: ('A' for Active; 'I' for Inactive)
REMARK    1  A    between atoms: N1_2  and  C31_40 
REMARK    2  A    between atoms: C2_4  and  C3_7 
REMARK       I    between atoms: N2_5  and  C3_7 
REMARK    3  A    between atoms: N2_5  and  C4_10 
REMARK    4  A    between atoms: N3_8  and  C10_19 
REMARK       I    between atoms: N4_11  and  C21_30 
REMARK    5  A    between atoms: N4_11  and  C22_31 
REMARK    6  A    between atoms: C10_19  and  C11_20 
REMARK    7  A    between atoms: C11_20  and  C12_21 
REMARK    8  A    between atoms: C12_21  and  C13_22 
REMARK    9  A    between atoms: C13_22  and  C14_23 
REMARK   10  A    between atoms: C13_22  and  C21_30 
REMARK   11  A    between atoms: C14_23  and  C15_24 
REMARK   12  A    between atoms: C31_40  and  C32_41 
ROOT
HETATM    1  O2  MK1 B 902      20.833   9.813 -17.716  1.00 15.87    -0.221 OA
HETATM    2  C11 MK1 B 902      21.218  11.126 -17.439  1.00 21.68     0.174 C 
ENDROOT
BRANCH   2   3
HETATM    3  C10 MK1 B 902      21.474  10.884 -15.951  1.00 20.86     0.131 C 
BRANCH   3   4
HETATM    4  N3  MK1 B 902      21.911   9.539 -15.634  1.00 28.91    -0.357 N 
HETATM    5  C2  MK1 B 902      23.380   9.325 -15.385  1.00 27.27     0.192 C 
HETATM    6  C1  MK1 B 902      23.415   7.860 -14.995  1.00 30.30     0.282 C 
HETATM    7  N1  MK1 B 902      22.631   7.348 -13.839  1.00 28.25     0.146 N 
HETATM    8  C9  MK1 B 902      21.283   7.565 -14.122  1.00 27.47     0.274 C 
HETATM    9  C8  MK1 B 902      20.927   8.913 -14.715  1.00 26.24     0.133 C 
BRANCH   5  10
HETATM   10  C3  MK1 B 902      24.221   9.509 -16.618  1.00 28.85     0.273 C 
HETATM   11  O1  MK1 B 902      24.135   8.716 -17.548  1.00 29.59    -0.269 OA
HETATM   12  N2  MK1 B 902      25.045  10.537 -16.633  1.00 22.29    -0.240 NA
BRANCH  12  13
HETATM   13  C4  MK1 B 902      25.909  11.014 -17.664  1.00 23.47     0.088 C 
HETATM   14  C5  MK1 B 902      25.031  11.277 -18.902  1.00 27.66     0.025 C 
HETATM   15  C6  MK1 B 902      26.931  10.131 -17.977  1.00 21.71     0.025 C 
HETATM   16  C7  MK1 B 902      26.519  12.313 -17.364  1.00 22.75     0.025 C 
ENDBRANCH  12  13
ENDBRANCH   5  10
BRANCH   7  17
HETATM   17  C31 MK1 B 902      22.949   5.998 -13.358  1.00 36.25     0.278 C 
BRANCH  17  18
HETATM   18  C32 MK1 B 902      23.263   5.731 -11.881  1.00 42.75     0.030 A 
HETATM   19  C33 MK1 B 902      24.317   6.354 -11.198  1.00 47.41     0.097 A 
HETATM   20  N5  MK1 B 902      24.653   6.176  -9.846  1.00 51.38    -0.243 NA
HETATM   21  C34 MK1 B 902      23.783   5.274  -9.235  1.00 50.60     0.099 A 
HETATM   22  C35 MK1 B 902      22.716   4.619  -9.856  1.00 49.34     0.020 A 
HETATM   23  C36 MK1 B 902      22.448   4.851 -11.202  1.00 44.71     0.001 A 
ENDBRANCH  17  18
ENDBRANCH   7  17
ENDBRANCH   3   4
ENDBRANCH   2   3
BRANCH   2  24
HETATM   24  C12 MK1 B 902      20.130  12.067 -17.987  1.00 21.49     0.045 C 
BRANCH  24  25
HETATM   25  C13 MK1 B 902      20.489  13.479 -18.471  1.00 26.89     0.088 C 
BRANCH  25  26
HETATM   26  C14 MK1 B 902      21.599  13.465 -19.537  1.00 28.67     0.036 C 
BRANCH  26  27
HETATM   27  C15 MK1 B 902      22.802  14.225 -19.114  1.00 26.89    -0.022 A 
HETATM   28  C16 MK1 B 902      23.235  14.270 -17.787  1.00 29.22    -0.004 A 
HETATM   29  C17 MK1 B 902      24.344  15.023 -17.430  1.00 29.22    -0.000 A 
HETATM   30  C18 MK1 B 902      25.020  15.737 -18.423  1.00 30.97    -0.000 A 
HETATM   31  C19 MK1 B 902      24.593  15.687 -19.756  1.00 29.25    -0.000 A 
HETATM   32  C20 MK1 B 902      23.477  14.925 -20.099  1.00 29.96    -0.004 A 
ENDBRANCH  26  27
ENDBRANCH  25  26
BRANCH  25  33
HETATM   33  C21 MK1 B 902      19.279  14.218 -19.029  1.00 29.35     0.252 C 
HETATM   34  O3  MK1 B 902      18.285  13.591 -19.430  1.00 32.66    -0.271 OA
HETATM   35  N4  MK1 B 902      19.426  15.533 -19.163  1.00 31.19    -0.233 NA
BRANCH  35  36
HETATM   36  C22 MK1 B 902      18.513  16.323 -19.972  1.00 29.22     0.159 C 
HETATM   37  C23 MK1 B 902      18.933  16.362 -21.431  1.00 28.82     0.183 C 
HETATM   38  O4  MK1 B 902      20.349  16.336 -21.537  1.00 28.32    -0.221 OA
HETATM   39  C24 MK1 B 902      18.299  17.613 -21.994  1.00 32.05     0.061 C 
HETATM   40  C25 MK1 B 902      18.186  18.676 -20.929  1.00 31.29    -0.022 A 
HETATM   41  C26 MK1 B 902      18.037  20.042 -20.876  1.00 32.00    -0.004 A 
HETATM   42  C30 MK1 B 902      18.341  17.828 -19.635  1.00 31.86    -0.001 A 
HETATM   43  C27 MK1 B 902      18.015  20.658 -19.620  1.00 28.00    -0.000 A 
HETATM   44  C28 MK1 B 902      18.141  19.901 -18.446  1.00 29.01    -0.000 A 
HETATM   45  C29 MK1 B 902      18.304  18.523 -18.468  1.00 27.70    -0.003 A 
ENDBRANCH  35  36
ENDBRANCH  25  33
ENDBRANCH  24  25
ENDBRANCH   2  24
TORSDOF 12
ENDMDL
MODEL 3
REMARK VINA RESULT:    -5.473      1.610      2.587
REMARK INTER + INTRA:         -12.962
REMARK INTER:                 -10.141
REMARK INTRA:                  -2.821
REMARK UNBOUND:                -3.650
REMARK  12 active torsions:
REMARK  status: ('A' for Active; 'I' for Inactive)
REMARK    1  A    between atoms: N1_2  and  C31_40 
REMARK    2  A    between atoms: C2_4  and  C3_7 
REMARK       I    between atoms: N2_5  and  C3_7 
REMARK    3  A    between atoms: N2_5  and  C4_10 
REMARK    4  A    between atoms: N3_8  and  C10_19 
REMARK       I    between atoms: N4_11  and  C21_30 
REMARK    5  A    between atoms: N4_11  and  C22_31 
REMARK    6  A    between atoms: C10_19  and  C11_20 
REMARK    7  A    between atoms: C11_20  and  C12_21 
REMARK    8  A    between atoms: C12_21  and  C13_22 
REMARK    9  A    between atoms: C13_22  and  C14_23 
REMARK   10  A    between atoms: C13_22  and  C21_30 
REMARK   11  A    between atoms: C14_23  and  C15_24 
REMARK   12  A    between atoms: C31_40  and  C32_41 
ROOT
HETATM    1  O2  MK1 B 902      31.089  16.339  -6.625  1.00 15.87    -0.221 OA
HETATM    2  C11 MK1 B 902      31.529  17.429  -7.379  1.00 21.68     0.174 C 
ENDROOT
BRANCH   2   3
HETATM    3  C10 MK1 B 902      32.051  16.589  -8.545  1.00 20.86     0.131 C 
BRANCH   3   4
HETATM    4  N3  MK1 B 902      31.519  16.974  -9.838  1.00 28.91    -0.357 N 
HETATM    5  C2  MK1 B 902      30.023  17.066  -9.974  1.00 27.27     0.192 C 
HETATM    6  C1  MK1 B 902      29.875  17.581 -11.392  1.00 30.30     0.282 C 
HETATM    7  N1  MK1 B 902      30.497  18.863 -11.819  1.00 28.25     0.146 N 
HETATM    8  C9  MK1 B 902      31.877  18.723 -11.678  1.00 27.47     0.274 C 
HETATM    9  C8  MK1 B 902      32.361  18.056 -10.407  1.00 26.24     0.133 C 
BRANCH   5  10
HETATM   10  C3  MK1 B 902      29.338  15.730  -9.880  1.00 28.85     0.273 C 
HETATM   11  O1  MK1 B 902      29.449  14.914 -10.786  1.00 29.59    -0.269 OA
HETATM   12  N2  MK1 B 902      28.617  15.502  -8.800  1.00 22.29    -0.240 NA
BRANCH  12  13
HETATM   13  C4  MK1 B 902      27.914  14.330  -8.389  1.00 23.47     0.088 C 
HETATM   14  C5  MK1 B 902      27.010  14.737  -7.211  1.00 27.66     0.025 C 
HETATM   15  C6  MK1 B 902      28.750  13.289  -8.017  1.00 21.71     0.025 C 
HETATM   16  C7  MK1 B 902      26.988  13.816  -9.403  1.00 22.75     0.025 C 
ENDBRANCH  12  13
ENDBRANCH   5  10
BRANCH   7  17
HETATM   17  C31 MK1 B 902      30.064  19.426 -13.103  1.00 36.25     0.278 C 
BRANCH  17  18
HETATM   18  C32 MK1 B 902      29.832  20.931 -13.279  1.00 42.75     0.030 A 
HETATM   19  C33 MK1 B 902      29.736  21.549 -14.534  1.00 47.41     0.097 A 
HETATM   20  N5  MK1 B 902      29.506  22.914 -14.774  1.00 51.38    -0.243 NA
HETATM   21  C34 MK1 B 902      29.376  23.612 -13.574  1.00 50.60     0.099 A 
HETATM   22  C35 MK1 B 902      29.461  23.059 -12.293  1.00 49.34     0.020 A 
HETATM   23  C36 MK1 B 902      29.691  21.694 -12.140  1.00 44.71     0.001 A 
ENDBRANCH  17  18
ENDBRANCH   7  17
ENDBRANCH   3   4
ENDBRANCH   2   3
BRANCH   2  24
HETATM   24  C12 MK1 B 902      32.419  18.303  -6.477  1.00 21.49     0.045 C 
BRANCH  24  25
HETATM   25  C13 MK1 B 902      31.851  19.557  -5.797  1.00 26.89     0.088 C 
BRANCH  25  26
HETATM   26  C14 MK1 B 902      30.667  20.157  -6.576  1.00 28.67     0.036 C 
BRANCH  26  27
HETATM   27  C15 MK1 B 902      31.078  21.279  -7.458  1.00 26.89    -0.022 A 
HETATM   28  C16 MK1 B 902      31.490  21.086  -8.777  1.00 29.22    -0.004 A 
HETATM   29  C17 MK1 B 902      31.901  22.159  -9.554  1.00 29.22    -0.000 A 
HETATM   30  C18 MK1 B 902      31.895  23.438  -8.990  1.00 30.97    -0.000 A 
HETATM   31  C19 MK1 B 902      31.474  23.636  -7.670  1.00 29.25    -0.000 A 
HETATM   32  C20 MK1 B 902      31.064  22.547  -6.902  1.00 29.96    -0.004 A 
ENDBRANCH  26  27
ENDBRANCH  25  26
BRANCH  25  33
HETATM   33  C21 MK1 B 902      31.409  19.281  -4.364  1.00 29.35     0.252 C 
HETATM   34  O3  MK1 B 902      32.246  19.163  -3.457  1.00 32.66    -0.271 OA
HETATM   35  N4  MK1 B 902      30.107  19.061  -4.202  1.00 31.19    -0.233 NA
BRANCH  35  36
HETATM   36  C22 MK1 B 902      29.582  18.468  -2.984  1.00 29.22     0.159 C 
HETATM   37  C23 MK1 B 902      28.485  17.456  -3.270  1.00 28.82     0.183 C 
HETATM   38  O4  MK1 B 902      27.735  17.852  -4.408  1.00 28.32    -0.221 OA
HETATM   39  C24 MK1 B 902      27.673  17.380  -1.997  1.00 32.05     0.061 C 
HETATM   40  C25 MK1 B 902      27.684  18.707  -1.279  1.00 31.29    -0.022 A 
HETATM   41  C26 MK1 B 902      26.922  19.351  -0.333  1.00 32.00    -0.004 A 
HETATM   42  C30 MK1 B 902      28.911  19.399  -1.939  1.00 31.86    -0.001 A 
HETATM   43  C27 MK1 B 902      27.285  20.650   0.037  1.00 28.00    -0.000 A 
HETATM   44  C28 MK1 B 902      28.397  21.279  -0.541  1.00 29.01    -0.000 A 
HETATM   45  C29 MK1 B 902      29.178  20.659  -1.507  1.00 27.70    -0.003 A 
ENDBRANCH  35  36
ENDBRANCH  25  33
ENDBRANCH  24  25
ENDBRANCH   2  24
TORSDOF 12
ENDMDL
MODEL 4
REMARK VINA RESULT:    -5.338     14.574     18.539
REMARK INTER + INTRA:         -12.733
REMARK INTER:                 -10.387
REMARK INTRA:                  -2.346
REMARK UNBOUND:                -3.650
REMARK  12 active torsions:
REMARK  status: ('A' for Active; 'I' for Inactive)
REMARK    1  A    between atoms: N1_2  and  C31_40 
REMARK    2  A    between atoms: C2_4  and  C3_7 
REMARK       I    between atoms: N2_5  and  C3_7 
REMARK    3  A    between atoms: N2_5  and  C4_10 
REMARK    4  A    between atoms: N3_8  and  C10_19 
REMARK       I    between atoms: N4_11  and  C21_30 
REMARK    5  A    between atoms: N4_11  and  C22_31 
REMARK    6  A    between atoms: C10_19  and  C11_20 
REMARK    7  A    between atoms: C11_20  and  C12_21 
REMARK    8  A    between atoms: C12_21  and  C13_22 
REMARK    9  A    between atoms: C13_22  and  C14_23 
REMARK   10  A    between atoms: C13_22  and  C21_30 
REMARK   11  A    between atoms: C14_23  and  C15_24 
REMARK   12  A    between atoms: C31_40  and  C32_41 
ROOT
HETATM    1  O2  MK1 B 902      21.374  15.602 -22.119  1.00 15.87    -0.221 OA
HETATM    2  C11 MK1 B 902      20.789  15.090 -20.959  1.00 21.68     0.174 C 
ENDROOT
BRANCH   2   3
HETATM    3  C10 MK1 B 902      21.243  13.649 -21.200  1.00 20.86     0.131 C 
BRANCH   3   4
HETATM    4  N3  MK1 B 902      21.567  12.919 -19.991  1.00 28.91    -0.357 N 
HETATM    5  C2  MK1 B 902      22.335  13.650 -18.922  1.00 27.27     0.192 C 
HETATM    6  C1  MK1 B 902      22.381  12.615 -17.815  1.00 30.30     0.282 C 
HETATM    7  N1  MK1 B 902      21.135  12.046 -17.236  1.00 28.25     0.146 N 
HETATM    8  C9  MK1 B 902      20.466  11.378 -18.261  1.00 27.47     0.274 C 
HETATM    9  C8  MK1 B 902      20.401  12.090 -19.597  1.00 26.24     0.133 C 
BRANCH   5  10
HETATM   10  C3  MK1 B 902      23.747  13.975 -19.327  1.00 28.85     0.273 C 
HETATM   11  O1  MK1 B 902      24.511  13.084 -19.675  1.00 29.59    -0.269 OA
HETATM   12  N2  MK1 B 902      24.108  15.242 -19.273  1.00 22.29    -0.240 NA
BRANCH  12  13
HETATM   13  C4  MK1 B 902      25.333  15.870 -19.650  1.00 23.47     0.088 C 
HETATM   14  C5  MK1 B 902      25.370  15.896 -21.189  1.00 27.66     0.025 C 
HETATM   15  C6  MK1 B 902      26.456  15.229 -19.151  1.00 21.71     0.025 C 
HETATM   16  C7  MK1 B 902      25.414  17.281 -19.257  1.00 22.75     0.025 C 
ENDBRANCH  12  13
ENDBRANCH   5  10
BRANCH   7  17
HETATM   17  C31 MK1 B 902      21.261  11.284 -15.987  1.00 36.25     0.278 C 
BRANCH  17  18
HETATM   18  C32 MK1 B 902      21.694   9.814 -15.988  1.00 42.75     0.030 A 
HETATM   19  C33 MK1 B 902      22.941   9.384 -16.466  1.00 47.41     0.097 A 
HETATM   20  N5  MK1 B 902      23.414   8.061 -16.482  1.00 51.38    -0.243 NA
HETATM   21  C34 MK1 B 902      22.468   7.191 -15.945  1.00 50.60     0.099 A 
HETATM   22  C35 MK1 B 902      21.210   7.552 -15.453  1.00 49.34     0.020 A 
HETATM   23  C36 MK1 B 902      20.815   8.887 -15.472  1.00 44.71     0.001 A 
ENDBRANCH  17  18
ENDBRANCH   7  17
ENDBRANCH   3   4
ENDBRANCH   2   3
BRANCH   2  24
HETATM   24  C12 MK1 B 902      19.317  15.539 -20.930  1.00 21.49     0.045 C 
BRANCH  24  25
HETATM   25  C13 MK1 B 902      18.628  15.874 -19.600  1.00 26.89     0.088 C 
BRANCH  25  26
HETATM   26  C14 MK1 B 902      17.559  16.971 -19.758  1.00 28.67     0.036 C 
BRANCH  26  27
HETATM   27  C15 MK1 B 902      18.090  18.326 -19.469  1.00 26.89    -0.022 A 
HETATM   28  C16 MK1 B 902      18.119  18.865 -18.181  1.00 29.22    -0.004 A 
HETATM   29  C17 MK1 B 902      18.591  20.150 -17.962  1.00 29.22    -0.000 A 
HETATM   30  C18 MK1 B 902      19.037  20.898 -19.055  1.00 30.97    -0.000 A 
HETATM   31  C19 MK1 B 902      19.017  20.358 -20.346  1.00 29.25    -0.000 A 
HETATM   32  C20 MK1 B 902      18.540  19.064 -20.550  1.00 29.96    -0.004 A 
ENDBRANCH  26  27
ENDBRANCH  25  26
BRANCH  25  33
HETATM   33  C21 MK1 B 902      17.986  14.648 -18.962  1.00 29.35     0.252 C 
HETATM   34  O3  MK1 B 902      18.236  14.343 -17.786  1.00 32.66    -0.271 OA
HETATM   35  N4  MK1 B 902      17.263  13.892 -19.784  1.00 31.19    -0.233 NA
BRANCH  35  36
HETATM   36  C22 MK1 B 902      16.867  12.540 -19.423  1.00 29.22     0.159 C 
HETATM   37  C23 MK1 B 902      16.813  11.622 -20.632  1.00 28.82     0.183 C 
HETATM   38  O4  MK1 B 902      16.399  12.345 -21.782  1.00 28.32    -0.221 OA
HETATM   39  C24 MK1 B 902      15.873  10.504 -20.240  1.00 32.05     0.061 C 
HETATM   40  C25 MK1 B 902      14.820  11.007 -19.284  1.00 31.29    -0.022 A 
HETATM   41  C26 MK1 B 902      13.571  10.619 -18.861  1.00 32.00    -0.004 A 
HETATM   42  C30 MK1 B 902      15.472  12.326 -18.780  1.00 31.86    -0.001 A 
HETATM   43  C27 MK1 B 902      12.896  11.436 -17.948  1.00 28.00    -0.000 A 
HETATM   44  C28 MK1 B 902      13.480  12.621 -17.476  1.00 29.01    -0.000 A 
HETATM   45  C29 MK1 B 902      14.734  13.046 -17.894  1.00 27.70    -0.003 A 
ENDBRANCH  35  36
ENDBRANCH  25  33
ENDBRANCH  24  25
ENDBRANCH   2  24
TORSDOF 12
ENDMDL
MODEL 5
REMARK VINA RESULT:    -5.283      2.643      6.415
REMARK INTER + INTRA:         -12.639
REMARK INTER:                 -10.253
REMARK INTRA:                  -2.386
REMARK UNBOUND:                -3.650
REMARK  12 active torsions:
REMARK  status: ('A' for Active; 'I' for Inactive)
REMARK    1  A    between atoms: N1_2  and  C31_40 
REMARK    2  A    between atoms: C2_4  and  C3_7 
REMARK       I    between atoms: N2_5  and  C3_7 
REMARK    3  A    between atoms: N2_5  and  C4_10 
REMARK    4  A    between atoms: N3_8  and  C10_19 
REMARK       I    between atoms: N4_11  and  C21_30 
REMARK    5  A    between atoms: N4_11  and  C22_31 
REMARK    6  A    between atoms: C10_19  and  C11_20 
REMARK    7  A    between atoms: C11_20  and  C12_21 
REMARK    8  A    between atoms: C12_21  and  C13_22 
REMARK    9  A    between atoms: C13_22  and  C14_23 
REMARK   10  A    between atoms: C13_22  and  C21_30 
REMARK   11  A    between atoms: C14_23  and  C15_24 
REMARK   12  A    between atoms: C31_40  and  C32_41 
ROOT
HETATM    1  O2  MK1 B 902      26.014  17.233  -6.309  1.00 15.87    -0.221 OA
HETATM    2  C11 MK1 B 902      27.278  16.677  -6.103  1.00 21.68     0.174 C 
ENDROOT
BRANCH   2   3
HETATM    3  C10 MK1 B 902      26.913  15.297  -6.652  1.00 20.86     0.131 C 
BRANCH   3   4
HETATM    4  N3  MK1 B 902      27.764  14.846  -7.735  1.00 28.91    -0.357 N 
HETATM    5  C2  MK1 B 902      27.297  13.661  -8.537  1.00 27.27     0.192 C 
HETATM    6  C1  MK1 B 902      28.371  13.571  -9.604  1.00 30.30     0.282 C 
HETATM    7  N1  MK1 B 902      28.654  14.712 -10.515  1.00 28.25     0.146 N 
HETATM    8  C9  MK1 B 902      29.085  15.777  -9.726  1.00 27.47     0.274 C 
HETATM    9  C8  MK1 B 902      28.308  16.027  -8.450  1.00 26.24     0.133 C 
BRANCH   5  10
HETATM   10  C3  MK1 B 902      27.301  12.378  -7.751  1.00 28.85     0.273 C 
HETATM   11  O1  MK1 B 902      26.371  11.587  -7.856  1.00 29.59    -0.269 OA
HETATM   12  N2  MK1 B 902      28.329  12.168  -6.953  1.00 22.29    -0.240 NA
BRANCH  12  13
HETATM   13  C4  MK1 B 902      28.654  11.038  -6.143  1.00 23.47     0.088 C 
HETATM   14  C5  MK1 B 902      28.952   9.869  -7.100  1.00 27.66     0.025 C 
HETATM   15  C6  MK1 B 902      27.647  10.690  -5.256  1.00 21.71     0.025 C 
HETATM   16  C7  MK1 B 902      29.889  11.206  -5.371  1.00 22.75     0.025 C 
ENDBRANCH  12  13
ENDBRANCH   5  10
BRANCH   7  17
HETATM   17  C31 MK1 B 902      29.489  14.441 -11.692  1.00 36.25     0.278 C 
BRANCH  17  18
HETATM   18  C32 MK1 B 902      30.207  15.571 -12.439  1.00 42.75     0.030 A 
HETATM   19  C33 MK1 B 902      31.599  15.736 -12.422  1.00 47.41     0.097 A 
HETATM   20  N5  MK1 B 902      32.327  16.732 -13.094  1.00 51.38    -0.243 NA
HETATM   21  C34 MK1 B 902      31.474  17.569 -13.812  1.00 50.60     0.099 A 
HETATM   22  C35 MK1 B 902      30.082  17.461 -13.871  1.00 49.34     0.020 A 
HETATM   23  C36 MK1 B 902      29.434  16.444 -13.174  1.00 44.71     0.001 A 
ENDBRANCH  17  18
ENDBRANCH   7  17
ENDBRANCH   3   4
ENDBRANCH   2   3
BRANCH   2  24
HETATM   24  C12 MK1 B 902      27.684  16.946  -4.643  1.00 21.49     0.045 C 
BRANCH  24  25
HETATM   25  C13 MK1 B 902      28.623  18.111  -4.294  1.00 26.89     0.088 C 
BRANCH  25  26
HETATM   26  C14 MK1 B 902      29.215  17.979  -2.879  1.00 28.67     0.036 C 
BRANCH  26  27
HETATM   27  C15 MK1 B 902      28.669  18.990  -1.940  1.00 26.89    -0.022 A 
HETATM   28  C16 MK1 B 902      27.603  18.719  -1.079  1.00 29.22    -0.004 A 
HETATM   29  C17 MK1 B 902      27.101  19.705  -0.243  1.00 29.22    -0.000 A 
HETATM   30  C18 MK1 B 902      27.681  20.976  -0.278  1.00 30.97    -0.000 A 
HETATM   31  C19 MK1 B 902      28.755  21.249  -1.134  1.00 29.25    -0.000 A 
HETATM   32  C20 MK1 B 902      29.249  20.247  -1.968  1.00 29.96    -0.004 A 
ENDBRANCH  26  27
ENDBRANCH  25  26
BRANCH  25  33
HETATM   33  C21 MK1 B 902      29.763  18.246  -5.295  1.00 29.35     0.252 C 
HETATM   34  O3  MK1 B 902      30.604  17.342  -5.422  1.00 32.66    -0.271 OA
HETATM   35  N4  MK1 B 902      29.849  19.425  -5.905  1.00 31.19    -0.233 NA
BRANCH  35  36
HETATM   36  C22 MK1 B 902      31.048  19.825  -6.623  1.00 29.22     0.159 C 
HETATM   37  C23 MK1 B 902      31.403  21.281  -6.372  1.00 28.82     0.183 C 
HETATM   38  O4  MK1 B 902      30.223  22.053  -6.200  1.00 28.32    -0.221 OA
HETATM   39  C24 MK1 B 902      32.240  21.697  -7.560  1.00 32.05     0.061 C 
HETATM   40  C25 MK1 B 902      31.819  20.941  -8.797  1.00 31.29    -0.022 A 
HETATM   41  C26 MK1 B 902      31.931  21.089 -10.159  1.00 32.00    -0.004 A 
HETATM   42  C30 MK1 B 902      31.040  19.748  -8.173  1.00 31.86    -0.001 A 
HETATM   43  C27 MK1 B 902      31.334  20.128 -10.982  1.00 28.00    -0.000 A 
HETATM   44  C28 MK1 B 902      30.640  19.040 -10.430  1.00 29.01    -0.000 A 
HETATM   45  C29 MK1 B 902      30.501  18.870  -9.059  1.00 27.70    -0.003 A 
ENDBRANCH  35  36
ENDBRANCH  25  33
ENDBRANCH  24  25
ENDBRANCH   2  24
TORSDOF 12
ENDMDL
MODEL 6
REMARK VINA RESULT:    -5.245     14.493     19.170
REMARK INTER + INTRA:         -12.575
REMARK INTER:                 -10.396
REMARK INTRA:                  -2.179
REMARK UNBOUND:                -3.650
REMARK  12 active torsions:
REMARK  status: ('A' for Active; 'I' for Inactive)
REMARK    1  A    between atoms: N1_2  and  C31_40 
REMARK    2  A    between atoms: C2_4  and  C3_7 
REMARK       I    between atoms: N2_5  and  C3_7 
REMARK    3  A    between atoms: N2_5  and  C4_10 
REMARK    4  A    between atoms: N3_8  and  C10_19 
REMARK       I    between atoms: N4_11  and  C21_30 
REMARK    5  A    between atoms: N4_11  and  C22_31 
REMARK    6  A    between atoms: C10_19  and  C11_20 
REMARK    7  A    between atoms: C11_20  and  C12_21 
REMARK    8  A    between atoms: C12_21  and  C13_22 
REMARK    9  A    between atoms: C13_22  and  C14_23 
REMARK   10  A    between atoms: C13_22  and  C21_30 
REMARK   11  A    between atoms: C14_23  and  C15_24 
REMARK   12  A    between atoms: C31_40  and  C32_41 
ROOT
HETATM    1  O2  MK1 B 902      20.378  14.407 -18.358  1.00 15.87    -0.221 OA
HETATM    2  C11 MK1 B 902      19.670  13.210 -18.229  1.00 21.68     0.174 C 
ENDROOT
BRANCH   2   3
HETATM    3  C10 MK1 B 902      20.348  12.520 -19.414  1.00 20.86     0.131 C 
BRANCH   3   4
HETATM    4  N3  MK1 B 902      21.156  11.374 -19.049  1.00 28.91    -0.357 N 
HETATM    5  C2  MK1 B 902      22.391  11.628 -18.226  1.00 27.27     0.192 C 
HETATM    6  C1  MK1 B 902      22.886  10.217 -17.972  1.00 30.30     0.282 C 
HETATM    7  N1  MK1 B 902      22.030   9.207 -17.293  1.00 28.25     0.146 N 
HETATM    8  C9  MK1 B 902      20.908   9.006 -18.095  1.00 27.47     0.274 C 
HETATM    9  C8  MK1 B 902      20.263  10.248 -18.676  1.00 26.24     0.133 C 
BRANCH   5  10
HETATM   10  C3  MK1 B 902      23.458  12.377 -18.977  1.00 28.85     0.273 C 
HETATM   11  O1  MK1 B 902      24.050  11.842 -19.907  1.00 29.59    -0.269 OA
HETATM   12  N2  MK1 B 902      23.721  13.605 -18.577  1.00 22.29    -0.240 NA
BRANCH  12  13
HETATM   13  C4  MK1 B 902      24.612  14.581 -19.116  1.00 23.47     0.088 C 
HETATM   14  C5  MK1 B 902      24.649  15.755 -18.119  1.00 27.66     0.025 C 
HETATM   15  C6  MK1 B 902      24.241  15.029 -20.374  1.00 21.71     0.025 C 
HETATM   16  C7  MK1 B 902      26.002  14.124 -19.198  1.00 22.75     0.025 C 
ENDBRANCH  12  13
ENDBRANCH   5  10
BRANCH   7  17
HETATM   17  C31 MK1 B 902      22.682   7.977 -16.828  1.00 36.25     0.278 C 
BRANCH  17  18
HETATM   18  C32 MK1 B 902      22.422   7.416 -15.425  1.00 42.75     0.030 A 
HETATM   19  C33 MK1 B 902      23.042   6.256 -14.938  1.00 47.41     0.097 A 
HETATM   20  N5  MK1 B 902      22.870   5.694 -13.663  1.00 51.38    -0.243 NA
HETATM   21  C34 MK1 B 902      21.978   6.452 -12.905  1.00 50.60     0.099 A 
HETATM   22  C35 MK1 B 902      21.326   7.613 -13.328  1.00 49.34     0.020 A 
HETATM   23  C36 MK1 B 902      21.552   8.107 -14.611  1.00 44.71     0.001 A 
ENDBRANCH  17  18
ENDBRANCH   7  17
ENDBRANCH   3   4
ENDBRANCH   2   3
BRANCH   2  24
HETATM   24  C12 MK1 B 902      18.170  13.549 -18.170  1.00 21.49     0.045 C 
BRANCH  24  25
HETATM   25  C13 MK1 B 902      17.276  13.364 -19.404  1.00 26.89     0.088 C 
BRANCH  25  26
HETATM   26  C14 MK1 B 902      16.014  12.540 -19.093  1.00 28.67     0.036 C 
BRANCH  26  27
HETATM   27  C15 MK1 B 902      16.080  11.167 -19.653  1.00 26.89    -0.022 A 
HETATM   28  C16 MK1 B 902      17.125  10.739 -20.475  1.00 29.22    -0.004 A 
HETATM   29  C17 MK1 B 902      17.128   9.458 -21.006  1.00 29.22    -0.000 A 
HETATM   30  C18 MK1 B 902      16.065   8.603 -20.704  1.00 30.97    -0.000 A 
HETATM   31  C19 MK1 B 902      15.020   9.025 -19.874  1.00 29.25    -0.000 A 
HETATM   32  C20 MK1 B 902      15.032  10.316 -19.348  1.00 29.96    -0.004 A 
ENDBRANCH  26  27
ENDBRANCH  25  26
BRANCH  25  33
HETATM   33  C21 MK1 B 902      16.857  14.697 -20.013  1.00 29.35     0.252 C 
HETATM   34  O3  MK1 B 902      15.954  14.747 -20.862  1.00 32.66    -0.271 OA
HETATM   35  N4  MK1 B 902      17.600  15.743 -19.661  1.00 31.19    -0.233 NA
BRANCH  35  36
HETATM   36  C22 MK1 B 902      17.543  16.997 -20.393  1.00 29.22     0.159 C 
HETATM   37  C23 MK1 B 902      18.433  16.978 -21.624  1.00 28.82     0.183 C 
HETATM   38  O4  MK1 B 902      19.591  16.191 -21.383  1.00 28.32    -0.221 OA
HETATM   39  C24 MK1 B 902      18.730  18.430 -21.923  1.00 32.05     0.061 C 
HETATM   40  C25 MK1 B 902      18.755  19.239 -20.650  1.00 31.29    -0.022 A 
HETATM   41  C26 MK1 B 902      19.269  20.443 -20.227  1.00 32.00    -0.004 A 
HETATM   42  C30 MK1 B 902      18.000  18.293 -19.673  1.00 31.86    -0.001 A 
HETATM   43  C27 MK1 B 902      19.084  20.809 -18.889  1.00 28.00    -0.000 A 
HETATM   44  C28 MK1 B 902      18.392  19.970 -18.003  1.00 29.01    -0.000 A 
HETATM   45  C29 MK1 B 902      17.873  18.744 -18.397  1.00 27.70    -0.003 A 
ENDBRANCH  35  36
ENDBRANCH  25  33
ENDBRANCH  24  25
ENDBRANCH   2  24
TORSDOF 12
ENDMDL
MODEL 7
REMARK VINA RESULT:    -5.143     13.896     16.532
REMARK INTER + INTRA:         -12.401
REMARK INTER:                 -10.265
REMARK INTRA:                  -2.136
REMARK UNBOUND:                -3.650
REMARK  12 active torsions:
REMARK  status: ('A' for Active; 'I' for Inactive)
REMARK    1  A    between atoms: N1_2  and  C31_40 
REMARK    2  A    between atoms: C2_4  and  C3_7 
REMARK       I    between atoms: N2_5  and  C3_7 
REMARK    3  A    between atoms: N2_5  and  C4_10 
REMARK    4  A    between atoms: N3_8  and  C10_19 
REMARK       I    between atoms: N4_11  and  C21_30 
REMARK    5  A    between atoms: N4_11  and  C22_31 
REMARK    6  A    between atoms: C10_19  and  C11_20 
REMARK    7  A    between atoms: C11_20  and  C12_21 
REMARK    8  A    between atoms: C12_21  and  C13_22 
REMARK    9  A    between atoms: C13_22  and  C14_23 
REMARK   10  A    between atoms: C13_22  and  C21_30 
REMARK   11  A    between atoms: C14_23  and  C15_24 
REMARK   12  A    between atoms: C31_40  and  C32_41 
ROOT
HETATM    1  O2  MK1 B 902      21.093  10.274 -17.592  1.00 15.87    -0.221 OA
HETATM    2  C11 MK1 B 902      21.053  11.133 -16.492  1.00 21.68     0.174 C 
ENDROOT
BRANCH   2   3
HETATM    3  C10 MK1 B 902      21.861  12.248 -17.156  1.00 20.86     0.131 C 
BRANCH   3   4
HETATM    4  N3  MK1 B 902      21.055  13.320 -17.705  1.00 28.91    -0.357 N 
HETATM    5  C2  MK1 B 902      20.900  13.377 -19.201  1.00 27.27     0.192 C 
HETATM    6  C1  MK1 B 902      19.934  14.534 -19.365  1.00 30.30     0.282 C 
HETATM    7  N1  MK1 B 902      18.592  14.519 -18.722  1.00 28.25     0.146 N 
HETATM    8  C9  MK1 B 902      18.792  14.470 -17.343  1.00 27.47     0.274 C 
HETATM    9  C8  MK1 B 902      19.857  13.512 -16.850  1.00 26.24     0.133 C 
BRANCH   5  10
HETATM   10  C3  MK1 B 902      22.178  13.722 -19.914  1.00 28.85     0.273 C 
HETATM   11  O1  MK1 B 902      22.400  13.279 -21.034  1.00 29.59    -0.269 OA
HETATM   12  N2  MK1 B 902      23.030  14.498 -19.274  1.00 22.29    -0.240 NA
BRANCH  12  13
HETATM   13  C4  MK1 B 902      24.276  15.050 -19.698  1.00 23.47     0.088 C 
HETATM   14  C5  MK1 B 902      24.001  15.838 -20.993  1.00 27.66     0.025 C 
HETATM   15  C6  MK1 B 902      25.256  14.094 -19.915  1.00 21.71     0.025 C 
HETATM   16  C7  MK1 B 902      24.823  16.046 -18.771  1.00 22.75     0.025 C 
ENDBRANCH  12  13
ENDBRANCH   5  10
BRANCH   7  17
HETATM   17  C31 MK1 B 902      17.622  15.527 -19.168  1.00 36.25     0.278 C 
BRANCH  17  18
HETATM   18  C32 MK1 B 902      18.040  16.980 -19.421  1.00 42.75     0.030 A 
HETATM   19  C33 MK1 B 902      18.449  17.450 -20.677  1.00 47.41     0.097 A 
HETATM   20  N5  MK1 B 902      18.826  18.767 -20.990  1.00 51.38    -0.243 NA
HETATM   21  C34 MK1 B 902      18.741  19.586 -19.865  1.00 50.60     0.099 A 
HETATM   22  C35 MK1 B 902      18.343  19.183 -18.588  1.00 49.34     0.020 A 
HETATM   23  C36 MK1 B 902      17.983  17.857 -18.359  1.00 44.71     0.001 A 
ENDBRANCH  17  18
ENDBRANCH   7  17
ENDBRANCH   3   4
ENDBRANCH   2   3
BRANCH   2  24
HETATM   24  C12 MK1 B 902      21.521  10.344 -15.256  1.00 21.49     0.045 C 
BRANCH  24  25
HETATM   25  C13 MK1 B 902      22.395   9.092 -15.412  1.00 26.89     0.088 C 
BRANCH  25  26
HETATM   26  C14 MK1 B 902      23.888   9.391 -15.189  1.00 28.67     0.036 C 
BRANCH  26  27
HETATM   27  C15 MK1 B 902      24.596   9.714 -16.453  1.00 26.89    -0.022 A 
HETATM   28  C16 MK1 B 902      25.494  10.779 -16.562  1.00 29.22    -0.004 A 
HETATM   29  C17 MK1 B 902      26.105  11.066 -17.773  1.00 29.22    -0.000 A 
HETATM   30  C18 MK1 B 902      25.806  10.272 -18.883  1.00 30.97    -0.000 A 
HETATM   31  C19 MK1 B 902      24.914   9.199 -18.775  1.00 29.25    -0.000 A 
HETATM   32  C20 MK1 B 902      24.307   8.922 -17.551  1.00 29.96    -0.004 A 
ENDBRANCH  26  27
ENDBRANCH  25  26
BRANCH  25  33
HETATM   33  C21 MK1 B 902      21.970   7.975 -14.465  1.00 29.35     0.252 C 
HETATM   34  O3  MK1 B 902      20.769   7.738 -14.267  1.00 32.66    -0.271 OA
HETATM   35  N4  MK1 B 902      22.959   7.386 -13.799  1.00 31.19    -0.233 NA
BRANCH  35  36
HETATM   36  C22 MK1 B 902      22.703   6.551 -12.638  1.00 29.22     0.159 C 
HETATM   37  C23 MK1 B 902      23.514   6.989 -11.431  1.00 28.82     0.183 C 
HETATM   38  O4  MK1 B 902      24.773   7.500 -11.843  1.00 28.32    -0.221 OA
HETATM   39  C24 MK1 B 902      23.608   5.765 -10.549  1.00 32.05     0.061 C 
HETATM   40  C25 MK1 B 902      23.606   4.508 -11.383  1.00 31.29    -0.022 A 
HETATM   41  C26 MK1 B 902      23.988   3.195 -11.234  1.00 32.00    -0.004 A 
HETATM   42  C30 MK1 B 902      23.035   5.038 -12.729  1.00 31.86    -0.001 A 
HETATM   43  C27 MK1 B 902      23.837   2.333 -12.326  1.00 28.00    -0.000 A 
HETATM   44  C28 MK1 B 902      23.310   2.797 -13.541  1.00 29.01    -0.000 A 
HETATM   45  C29 MK1 B 902      22.927   4.119 -13.725  1.00 27.70    -0.003 A 
ENDBRANCH  35  36
ENDBRANCH  25  33
ENDBRANCH  24  25
ENDBRANCH   2  24
TORSDOF 12
ENDMDL
MODEL 8
REMARK VINA RESULT:    -5.141     15.836     19.095
REMARK INTER + INTRA:         -12.397
REMARK INTER:                 -10.098
REMARK INTRA:                  -2.299
REMARK UNBOUND:                -3.650
REMARK  12 active torsions:
REMARK  status: ('A' for Active; 'I' for Inactive)
REMARK    1  A    between atoms: N1_2  and  C31_40 
REMARK    2  A    between atoms: C2_4  and  C3_7 
REMARK       I    between atoms: N2_5  and  C3_7 
REMARK    3  A    between atoms: N2_5  and  C4_10 
REMARK    4  A    between atoms: N3_8  and  C10_19 
REMARK       I    between atoms: N4_11  and  C21_30 
REMARK    5  A    between atoms: N4_11  and  C22_31 
REMARK    6  A    between atoms: C10_19  and  C11_20 
REMARK    7  A    between atoms: C11_20  and  C12_21 
REMARK    8  A    between atoms: C12_21  and  C13_22 
REMARK    9  A    between atoms: C13_22  and  C14_23 
REMARK   10  A    between atoms: C13_22  and  C21_30 
REMARK   11  A    between atoms: C14_23  and  C15_24 
REMARK   12  A    between atoms: C31_40  and  C32_41 
ROOT
HETATM    1  O2  MK1 B 902      21.056  11.862 -22.249  1.00 15.87    -0.221 OA
HETATM    2  C11 MK1 B 902      21.658  12.723 -21.331  1.00 21.68     0.174 C 
ENDROOT
BRANCH   2   3
HETATM    3  C10 MK1 B 902      22.450  11.630 -20.613  1.00 20.86     0.131 C 
BRANCH   3   4
HETATM    4  N3  MK1 B 902      21.764  11.051 -19.474  1.00 28.91    -0.357 N 
HETATM    5  C2  MK1 B 902      21.665   9.551 -19.412  1.00 27.27     0.192 C 
HETATM    6  C1  MK1 B 902      20.997   9.343 -18.067  1.00 30.30     0.282 C 
HETATM    7  N1  MK1 B 902      21.608   9.857 -16.811  1.00 28.25     0.146 N 
HETATM    8  C9  MK1 B 902      21.672  11.246 -16.919  1.00 27.47     0.274 C 
HETATM    9  C8  MK1 B 902      22.144  11.798 -18.249  1.00 26.24     0.133 C 
BRANCH   5  10
HETATM   10  C3  MK1 B 902      20.775   8.973 -20.478  1.00 28.85     0.273 C 
HETATM   11  O1  MK1 B 902      21.261   8.427 -21.460  1.00 29.59    -0.269 OA
HETATM   12  N2  MK1 B 902      19.474   9.099 -20.304  1.00 22.29    -0.240 NA
BRANCH  12  13
HETATM   13  C4  MK1 B 902      18.385   8.607 -21.086  1.00 23.47     0.088 C 
HETATM   14  C5  MK1 B 902      17.090   9.095 -20.410  1.00 27.66     0.025 C 
HETATM   15  C6  MK1 B 902      18.375   7.227 -21.207  1.00 21.71     0.025 C 
HETATM   16  C7  MK1 B 902      18.331   9.174 -22.437  1.00 22.75     0.025 C 
ENDBRANCH  12  13
ENDBRANCH   5  10
BRANCH   7  17
HETATM   17  C31 MK1 B 902      21.056   9.364 -15.544  1.00 36.25     0.278 C 
BRANCH  17  18
HETATM   18  C32 MK1 B 902      21.900   8.525 -14.578  1.00 42.75     0.030 A 
HETATM   19  C33 MK1 B 902      23.303   8.548 -14.571  1.00 47.41     0.097 A 
HETATM   20  N5  MK1 B 902      24.142   7.825 -13.706  1.00 51.38    -0.243 NA
HETATM   21  C34 MK1 B 902      23.392   7.055 -12.819  1.00 50.60     0.099 A 
HETATM   22  C35 MK1 B 902      21.997   6.986 -12.772  1.00 49.34     0.020 A 
HETATM   23  C36 MK1 B 902      21.235   7.736 -13.666  1.00 44.71     0.001 A 
ENDBRANCH  17  18
ENDBRANCH   7  17
ENDBRANCH   3   4
ENDBRANCH   2   3
BRANCH   2  24
HETATM   24  C12 MK1 B 902      20.551  13.564 -20.670  1.00 21.49     0.045 C 
BRANCH  24  25
HETATM   25  C13 MK1 B 902      19.071  13.257 -20.936  1.00 26.89     0.088 C 
BRANCH  25  26
HETATM   26  C14 MK1 B 902      18.449  12.382 -19.832  1.00 28.67     0.036 C 
BRANCH  26  27
HETATM   27  C15 MK1 B 902      18.103  13.163 -18.618  1.00 26.89    -0.022 A 
HETATM   28  C16 MK1 B 902      19.069  13.765 -17.809  1.00 29.22    -0.004 A 
HETATM   29  C17 MK1 B 902      18.702  14.455 -16.664  1.00 29.22    -0.000 A 
HETATM   30  C18 MK1 B 902      17.347  14.535 -16.332  1.00 30.97    -0.000 A 
HETATM   31  C19 MK1 B 902      16.375  13.940 -17.145  1.00 29.25    -0.000 A 
HETATM   32  C20 MK1 B 902      16.760  13.250 -18.294  1.00 29.96    -0.004 A 
ENDBRANCH  26  27
ENDBRANCH  25  26
BRANCH  25  33
HETATM   33  C21 MK1 B 902      18.240  14.525 -21.086  1.00 29.35     0.252 C 
HETATM   34  O3  MK1 B 902      17.100  14.480 -21.573  1.00 32.66    -0.271 OA
HETATM   35  N4  MK1 B 902      18.868  15.657 -20.779  1.00 31.19    -0.233 NA
BRANCH  35  36
HETATM   36  C22 MK1 B 902      18.340  16.952 -21.176  1.00 29.22     0.159 C 
HETATM   37  C23 MK1 B 902      19.114  17.550 -22.338  1.00 28.82     0.183 C 
HETATM   38  O4  MK1 B 902      20.484  17.184 -22.258  1.00 28.32    -0.221 OA
HETATM   39  C24 MK1 B 902      18.871  19.040 -22.252  1.00 32.05     0.061 C 
HETATM   40  C25 MK1 B 902      18.681  19.465 -20.817  1.00 31.29    -0.022 A 
HETATM   41  C26 MK1 B 902      18.766  20.628 -20.088  1.00 32.00    -0.004 A 
HETATM   42  C30 MK1 B 902      18.356  18.105 -20.138  1.00 31.86    -0.001 A 
HETATM   43  C27 MK1 B 902      18.537  20.564 -18.709  1.00 28.00    -0.000 A 
HETATM   44  C28 MK1 B 902      18.228  19.344 -18.088  1.00 29.01    -0.000 A 
HETATM   45  C29 MK1 B 902      18.148  18.153 -18.795  1.00 27.70    -0.003 A 
ENDBRANCH  35  36
ENDBRANCH  25  33
ENDBRANCH  24  25
ENDBRANCH   2  24
TORSDOF 12
ENDMDL
MODEL 9
REMARK VINA RESULT:    -5.054     14.192     17.605
REMARK INTER + INTRA:         -12.250
REMARK INTER:                 -10.174
REMARK INTRA:                  -2.076
REMARK UNBOUND:                -3.650
REMARK  12 active torsions:
REMARK  status: ('A' for Active; 'I' for Inactive)
REMARK    1  A    between atoms: N1_2  and  C31_40 
REMARK    2  A    between atoms: C2_4  and  C3_7 
REMARK       I    between atoms: N2_5  and  C3_7 
REMARK    3  A    between atoms: N2_5  and  C4_10 
REMARK    4  A    between atoms: N3_8  and  C10_19 
REMARK       I    between atoms: N4_11  and  C21_30 
REMARK    5  A    between atoms: N4_11  and  C22_31 
REMARK    6  A    between atoms: C10_19  and  C11_20 
REMARK    7  A    between atoms: C11_20  and  C12_21 
REMARK    8  A    between atoms: C12_21  and  C13_22 
REMARK    9  A    between atoms: C13_22  and  C14_23 
REMARK   10  A    between atoms: C13_22  and  C21_30 
REMARK   11  A    between atoms: C14_23  and  C15_24 
REMARK   12  A    between atoms: C31_40  and  C32_41 
ROOT
HETATM    1  O2  MK1 B 902      20.933  10.167 -17.340  1.00 15.87    -0.221 OA
HETATM    2  C11 MK1 B 902      21.280  11.258 -16.541  1.00 21.68     0.174 C 
ENDROOT
BRANCH   2   3
HETATM    3  C10 MK1 B 902      21.569  10.427 -15.291  1.00 20.86     0.131 C 
BRANCH   3   4
HETATM    4  N3  MK1 B 902      22.197   9.148 -15.560  1.00 28.91    -0.357 N 
HETATM    5  C2  MK1 B 902      23.699   9.080 -15.475  1.00 27.27     0.192 C 
HETATM    6  C1  MK1 B 902      23.952   7.604 -15.710  1.00 30.30     0.282 C 
HETATM    7  N1  MK1 B 902      23.353   6.566 -14.829  1.00 28.25     0.146 N 
HETATM    8  C9  MK1 B 902      21.967   6.669 -14.948  1.00 27.47     0.274 C 
HETATM    9  C8  MK1 B 902      21.392   8.070 -14.933  1.00 26.24     0.133 C 
BRANCH   5  10
HETATM   10  C3  MK1 B 902      24.388   9.858 -16.562  1.00 28.85     0.273 C 
HETATM   11  O1  MK1 B 902      25.006  10.881 -16.293  1.00 29.59    -0.269 OA
HETATM   12  N2  MK1 B 902      24.278   9.395 -17.791  1.00 22.29    -0.240 NA
BRANCH  12  13
HETATM   13  C4  MK1 B 902      24.862   9.858 -19.009  1.00 23.47     0.088 C 
HETATM   14  C5  MK1 B 902      23.924  10.942 -19.573  1.00 27.66     0.025 C 
HETATM   15  C6  MK1 B 902      25.055   8.853 -19.943  1.00 21.71     0.025 C 
HETATM   16  C7  MK1 B 902      26.144  10.544 -18.821  1.00 22.75     0.025 C 
ENDBRANCH  12  13
ENDBRANCH   5  10
BRANCH   7  17
HETATM   17  C31 MK1 B 902      23.879   5.200 -14.944  1.00 36.25     0.278 C 
BRANCH  17  18
HETATM   18  C32 MK1 B 902      24.963   4.679 -13.992  1.00 42.75     0.030 A 
HETATM   19  C33 MK1 B 902      25.230   5.263 -12.746  1.00 47.41     0.097 A 
HETATM   20  N5  MK1 B 902      26.190   4.832 -11.814  1.00 51.38    -0.243 NA
HETATM   21  C34 MK1 B 902      26.870   3.712 -12.288  1.00 50.60     0.099 A 
HETATM   22  C35 MK1 B 902      26.654   3.082 -13.517  1.00 49.34     0.020 A 
HETATM   23  C36 MK1 B 902      25.682   3.572 -14.386  1.00 44.71     0.001 A 
ENDBRANCH  17  18
ENDBRANCH   7  17
ENDBRANCH   3   4
ENDBRANCH   2   3
BRANCH   2  24
HETATM   24  C12 MK1 B 902      20.153  12.301 -16.643  1.00 21.49     0.045 C 
BRANCH  24  25
HETATM   25  C13 MK1 B 902      20.384  13.634 -17.369  1.00 26.89     0.088 C 
BRANCH  25  26
HETATM   26  C14 MK1 B 902      21.190  13.459 -18.669  1.00 28.67     0.036 C 
BRANCH  26  27
HETATM   27  C15 MK1 B 902      22.539  14.071 -18.587  1.00 26.89    -0.022 A 
HETATM   28  C16 MK1 B 902      23.323  14.014 -17.432  1.00 29.22    -0.004 A 
HETATM   29  C17 MK1 B 902      24.563  14.632 -17.389  1.00 29.22    -0.000 A 
HETATM   30  C18 MK1 B 902      25.015  15.315 -18.521  1.00 30.97    -0.000 A 
HETATM   31  C19 MK1 B 902      24.236  15.367 -19.683  1.00 29.25    -0.000 A 
HETATM   32  C20 MK1 B 902      22.990  14.740 -19.712  1.00 29.96    -0.004 A 
ENDBRANCH  26  27
ENDBRANCH  25  26
BRANCH  25  33
HETATM   33  C21 MK1 B 902      19.075  14.345 -17.692  1.00 29.35     0.252 C 
HETATM   34  O3  MK1 B 902      17.991  13.876 -17.314  1.00 32.66    -0.271 OA
HETATM   35  N4  MK1 B 902      19.184  15.402 -18.493  1.00 31.19    -0.233 NA
BRANCH  35  36
HETATM   36  C22 MK1 B 902      18.025  15.979 -19.153  1.00 29.22     0.159 C 
HETATM   37  C23 MK1 B 902      17.916  15.537 -20.602  1.00 28.82     0.183 C 
HETATM   38  O4  MK1 B 902      19.210  15.366 -21.162  1.00 28.32    -0.221 OA
HETATM   39  C24 MK1 B 902      17.090  16.605 -21.282  1.00 32.05     0.061 C 
HETATM   40  C25 MK1 B 902      17.317  17.947 -20.632  1.00 31.29    -0.022 A 
HETATM   41  C26 MK1 B 902      17.155  19.272 -20.963  1.00 32.00    -0.004 A 
HETATM   42  C30 MK1 B 902      17.934  17.524 -19.268  1.00 31.86    -0.001 A 
HETATM   43  C27 MK1 B 902      17.547  20.241 -20.033  1.00 28.00    -0.000 A 
HETATM   44  C28 MK1 B 902      18.092  19.870 -18.795  1.00 29.01    -0.000 A 
HETATM   45  C29 MK1 B 902      18.279  18.542 -18.437  1.00 27.70    -0.003 A 
ENDBRANCH  35  36
ENDBRANCH  25  33
ENDBRANCH  24  25
ENDBRANCH   2  24
TORSDOF 12
ENDMDL
