MODEL 1
REMARK VINA RESULT:      -6.9      0.000      0.000
REMARK  7 active torsions:
REMARK  status: ('A' for Active; 'I' for Inactive)
REMARK    1  A    between atoms: S_1  and  N_6 
REMARK    2  A    between atoms: S_1  and  C_18 
REMARK    3  A    between atoms: O_4  and  C_23 
REMARK    4  A    between atoms: O_4  and  C_34 
REMARK    5  A    between atoms: C_21  and  C_24 
REMARK    6  A    between atoms: C_28  and  C_29 
REMARK    7  A    between atoms: C_29  and  C_31 
ROOT
HETATM    1  C   UNL N   1     -57.999 -13.165  -5.743  0.00  0.00     0.075 A 
HETATM    2  C   UNL N   1     -57.822 -12.509  -6.958  0.00  0.00     0.042 A 
HETATM    3  C   UNL N   1     -56.807 -11.567  -7.107  0.00  0.00     0.043 A 
HETATM    4  C   UNL N   1     -57.157 -12.886  -4.662  0.00  0.00     0.027 A 
HETATM    5  C   UNL N   1     -55.927 -11.309  -6.043  0.00  0.00     0.082 A 
HETATM    6  C   UNL N   1     -56.115 -11.966  -4.810  0.00  0.00     0.039 A 
ENDROOT
BRANCH   3   7
HETATM    7  C   UNL N   1     -56.614 -10.908  -8.403  0.00  0.00     0.121 A 
HETATM    8  N   UNL N   1     -56.275 -11.647  -9.516  0.00  0.00    -0.307 N 
HETATM    9  C   UNL N   1     -56.037 -11.027 -10.726  0.00  0.00     0.277 A 
HETATM   10  H   UNL N   1     -56.156 -12.682  -9.436  0.00  0.00     0.170 HD
HETATM   11  O   UNL N   1     -55.701 -11.676 -11.701  0.00  0.00    -0.265 OA
HETATM   12  C   UNL N   1     -56.196  -9.648 -10.791  0.00  0.00     0.147 A 
HETATM   13  N   UNL N   1     -56.048  -8.779 -11.813  0.00  0.00    -0.289 N 
HETATM   14  C   UNL N   1     -56.574  -8.964  -9.691  0.00  0.00     0.092 A 
HETATM   15  N   UNL N   1     -56.346  -7.556 -11.379  0.00  0.00    -0.300 N 
HETATM   16  C   UNL N   1     -55.639  -9.086 -13.178  0.00  0.00     0.178 C 
HETATM   17  C   UNL N   1     -56.687  -7.650 -10.069  0.00  0.00     0.055 A 
ATOM     18  HN  UNL N   1     -56.321  -6.700 -11.934  1.00  0.00     0.187 HD
HETATM   19  N   UNL N   1     -56.763  -9.552  -8.491  0.00  0.00    -0.338 N 
ATOM     20  HN  UNL N   1     -57.012  -9.000  -7.671  1.00  0.00     0.167 HD
BRANCH  17  21
HETATM   21  C   UNL N   1     -57.147  -6.507  -9.214  0.00  0.00     0.061 C 
BRANCH  21  22
HETATM   22  C   UNL N   1     -56.069  -5.434  -9.063  0.00  0.00     0.002 C 
HETATM   23  C   UNL N   1     -55.662  -5.264  -7.596  0.00  0.00     0.005 C 
ENDBRANCH  21  22
ENDBRANCH  17  21
ENDBRANCH   3   7
BRANCH   5  24
HETATM   24  O   UNL N   1     -54.856 -10.508  -6.270  0.00  0.00    -0.351 OA
BRANCH  24  25
HETATM   25  C   UNL N   1     -54.413  -9.577  -5.349  0.00  0.00     0.171 C 
HETATM   26  C   UNL N   1     -55.299  -8.343  -5.417  0.00  0.00     0.034 C 
ENDBRANCH  24  25
ENDBRANCH   5  24
BRANCH   1  27
HETATM   27  S   UNL N   1     -59.241 -14.439  -5.626  0.00  0.00     0.243 S 
HETATM   28  O   UNL N   1     -58.694 -15.850  -5.359  0.00  0.00    -0.206 OA
HETATM   29  O   UNL N   1     -60.220 -14.234  -4.460  0.00  0.00    -0.206 OA
BRANCH  27  30
HETATM   30  N   UNL N   1     -60.262 -14.568  -7.075  0.00  0.00    -0.203 NA
HETATM   31  C   UNL N   1     -61.674 -14.533  -6.662  0.00  0.00     0.135 C 
HETATM   32  C   UNL N   1     -62.578 -14.684  -7.891  0.00  0.00     0.250 C 
HETATM   33  N   UNL N   1     -62.290 -15.954  -8.590  0.00  0.00    -0.073 N 
HETATM   34  C   UNL N   1     -60.863 -16.013  -8.978  0.00  0.00     0.250 C 
HETATM   35  C   UNL N   1     -63.145 -16.084  -9.779  0.00  0.00     0.269 C 
HETATM   36  H   UNL N   1     -62.504 -16.755  -7.948  0.00  0.00     0.279 HD
HETATM   37  C   UNL N   1     -59.970 -15.849  -7.744  0.00  0.00     0.135 C 
ENDBRANCH  27  30
ENDBRANCH   1  27
TORSDOF 7
ENDMDL
MODEL 2
REMARK VINA RESULT:      -6.6      2.611      4.225
REMARK  7 active torsions:
REMARK  status: ('A' for Active; 'I' for Inactive)
REMARK    1  A    between atoms: S_1  and  N_6 
REMARK    2  A    between atoms: S_1  and  C_18 
REMARK    3  A    between atoms: O_4  and  C_23 
REMARK    4  A    between atoms: O_4  and  C_34 
REMARK    5  A    between atoms: C_21  and  C_24 
REMARK    6  A    between atoms: C_28  and  C_29 
REMARK    7  A    between atoms: C_29  and  C_31 
ROOT
HETATM    1  C   UNL N   1     -56.759 -12.494  -9.111  0.00  0.00     0.075 A 
HETATM    2  C   UNL N   1     -56.041 -11.312  -8.946  0.00  0.00     0.042 A 
HETATM    3  C   UNL N   1     -55.393 -10.726 -10.032  0.00  0.00     0.043 A 
HETATM    4  C   UNL N   1     -56.838 -13.101 -10.369  0.00  0.00     0.027 A 
HETATM    5  C   UNL N   1     -55.501 -11.302 -11.309  0.00  0.00     0.082 A 
HETATM    6  C   UNL N   1     -56.219 -12.504 -11.470  0.00  0.00     0.039 A 
ENDROOT
BRANCH   3   7
HETATM    7  C   UNL N   1     -54.667  -9.465  -9.847  0.00  0.00     0.121 A 
HETATM    8  N   UNL N   1     -53.492  -9.232 -10.529  0.00  0.00    -0.307 N 
HETATM    9  C   UNL N   1     -52.774  -8.072 -10.318  0.00  0.00     0.277 A 
HETATM   10  H   UNL N   1     -53.119  -9.956 -11.183  0.00  0.00     0.170 HD
HETATM   11  O   UNL N   1     -51.717  -7.882 -10.894  0.00  0.00    -0.265 OA
HETATM   12  C   UNL N   1     -53.299  -7.136  -9.435  0.00  0.00     0.147 A 
HETATM   13  N   UNL N   1     -52.844  -5.930  -9.037  0.00  0.00    -0.289 N 
HETATM   14  C   UNL N   1     -54.475  -7.380  -8.819  0.00  0.00     0.092 A 
HETATM   15  N   UNL N   1     -53.726  -5.398  -8.193  0.00  0.00    -0.300 N 
HETATM   16  C   UNL N   1     -51.604  -5.279  -9.443  0.00  0.00     0.178 C 
HETATM   17  C   UNL N   1     -54.751  -6.276  -8.054  0.00  0.00     0.055 A 
ATOM     18  HN  UNL N   1     -53.643  -4.492  -7.732  1.00  0.00     0.187 HD
HETATM   19  N   UNL N   1     -55.163  -8.531  -8.981  0.00  0.00    -0.338 N 
ATOM     20  HN  UNL N   1     -56.030  -8.698  -8.472  1.00  0.00     0.167 HD
BRANCH  17  21
HETATM   21  C   UNL N   1     -55.983  -6.038  -7.233  0.00  0.00     0.061 C 
BRANCH  21  22
HETATM   22  C   UNL N   1     -57.164  -5.580  -8.090  0.00  0.00     0.002 C 
HETATM   23  C   UNL N   1     -58.460  -5.558  -7.275  0.00  0.00     0.005 C 
ENDBRANCH  21  22
ENDBRANCH  17  21
ENDBRANCH   3   7
BRANCH   5  24
HETATM   24  O   UNL N   1     -54.995 -10.623 -12.368  0.00  0.00    -0.351 OA
BRANCH  24  25
HETATM   25  C   UNL N   1     -55.786 -10.151 -13.397  0.00  0.00     0.171 C 
HETATM   26  C   UNL N   1     -56.149  -8.699 -13.129  0.00  0.00     0.034 C 
ENDBRANCH  24  25
ENDBRANCH   5  24
BRANCH   1  27
HETATM   27  S   UNL N   1     -57.660 -13.154  -7.722  0.00  0.00     0.243 S 
HETATM   28  O   UNL N   1     -56.882 -14.172  -6.873  0.00  0.00    -0.206 OA
HETATM   29  O   UNL N   1     -58.056 -12.089  -6.687  0.00  0.00    -0.206 OA
BRANCH  27  30
HETATM   30  N   UNL N   1     -59.182 -13.949  -8.179  0.00  0.00    -0.203 NA
HETATM   31  C   UNL N   1     -59.865 -13.119  -9.185  0.00  0.00     0.135 C 
HETATM   32  C   UNL N   1     -61.203 -13.762  -9.567  0.00  0.00     0.250 C 
HETATM   33  N   UNL N   1     -62.061 -13.914  -8.374  0.00  0.00    -0.073 N 
HETATM   34  C   UNL N   1     -61.369 -14.718  -7.343  0.00  0.00     0.250 C 
HETATM   35  C   UNL N   1     -63.335 -14.550  -8.742  0.00  0.00     0.269 C 
HETATM   36  H   UNL N   1     -62.275 -12.965  -7.982  0.00  0.00     0.279 HD
HETATM   37  C   UNL N   1     -60.029 -14.072  -6.978  0.00  0.00     0.135 C 
ENDBRANCH  27  30
ENDBRANCH   1  27
TORSDOF 7
ENDMDL
MODEL 3
REMARK VINA RESULT:      -6.5     17.124     20.388
REMARK  7 active torsions:
REMARK  status: ('A' for Active; 'I' for Inactive)
REMARK    1  A    between atoms: S_1  and  N_6 
REMARK    2  A    between atoms: S_1  and  C_18 
REMARK    3  A    between atoms: O_4  and  C_23 
REMARK    4  A    between atoms: O_4  and  C_34 
REMARK    5  A    between atoms: C_21  and  C_24 
REMARK    6  A    between atoms: C_28  and  C_29 
REMARK    7  A    between atoms: C_29  and  C_31 
ROOT
HETATM    1  C   UNL N   1     -58.853   3.628 -22.041  0.00  0.00     0.075 A 
HETATM    2  C   UNL N   1     -59.147   2.269 -21.971  0.00  0.00     0.042 A 
HETATM    3  C   UNL N   1     -58.820   1.424 -23.030  0.00  0.00     0.043 A 
HETATM    4  C   UNL N   1     -58.224   4.157 -23.173  0.00  0.00     0.027 A 
HETATM    5  C   UNL N   1     -58.149   1.934 -24.155  0.00  0.00     0.082 A 
HETATM    6  C   UNL N   1     -57.863   3.312 -24.227  0.00  0.00     0.039 A 
ENDROOT
BRANCH   3   7
HETATM    7  C   UNL N   1     -59.108  -0.010 -22.928  0.00  0.00     0.121 A 
HETATM    8  N   UNL N   1     -58.099  -0.936 -23.084  0.00  0.00    -0.307 N 
HETATM    9  C   UNL N   1     -58.373  -2.288 -23.045  0.00  0.00     0.277 A 
HETATM   10  H   UNL N   1     -57.123  -0.614 -23.273  0.00  0.00     0.170 HD
HETATM   11  O   UNL N   1     -57.487  -3.107 -23.219  0.00  0.00    -0.265 OA
HETATM   12  C   UNL N   1     -59.684  -2.678 -22.799  0.00  0.00     0.147 A 
HETATM   13  N   UNL N   1     -60.248  -3.899 -22.695  0.00  0.00    -0.289 N 
HETATM   14  C   UNL N   1     -60.637  -1.742 -22.606  0.00  0.00     0.092 A 
HETATM   15  N   UNL N   1     -61.543  -3.749 -22.420  0.00  0.00    -0.300 N 
HETATM   16  C   UNL N   1     -59.588  -5.190 -22.845  0.00  0.00     0.178 C 
HETATM   17  C   UNL N   1     -61.802  -2.419 -22.348  0.00  0.00     0.055 A 
ATOM     18  HN  UNL N   1     -62.219  -4.501 -22.288  1.00  0.00     0.187 HD
HETATM   19  N   UNL N   1     -60.391  -0.417 -22.689  0.00  0.00    -0.338 N 
ATOM     20  HN  UNL N   1     -61.142   0.263 -22.575  1.00  0.00     0.167 HD
BRANCH  17  21
HETATM   21  C   UNL N   1     -63.131  -1.818 -22.001  0.00  0.00     0.061 C 
BRANCH  21  22
HETATM   22  C   UNL N   1     -63.718  -2.420 -20.725  0.00  0.00     0.002 C 
HETATM   23  C   UNL N   1     -64.794  -1.508 -20.129  0.00  0.00     0.005 C 
ENDBRANCH  21  22
ENDBRANCH  17  21
ENDBRANCH   3   7
BRANCH   5  24
HETATM   24  O   UNL N   1     -57.705   1.061 -25.092  0.00  0.00    -0.351 OA
BRANCH  24  25
HETATM   25  C   UNL N   1     -58.176   1.060 -26.392  0.00  0.00     0.171 C 
HETATM   26  C   UNL N   1     -58.889  -0.255 -26.667  0.00  0.00     0.034 C 
ENDBRANCH  24  25
ENDBRANCH   5  24
BRANCH   1  27
HETATM   27  S   UNL N   1     -59.190   4.655 -20.624  0.00  0.00     0.243 S 
HETATM   28  O   UNL N   1     -59.299   6.158 -20.927  0.00  0.00    -0.206 OA
HETATM   29  O   UNL N   1     -60.540   4.351 -19.955  0.00  0.00    -0.206 OA
BRANCH  27  30
HETATM   30  N   UNL N   1     -57.983   4.495 -19.330  0.00  0.00    -0.203 NA
HETATM   31  C   UNL N   1     -58.301   5.460 -18.265  0.00  0.00     0.135 C 
HETATM   32  C   UNL N   1     -57.250   5.371 -17.153  0.00  0.00     0.250 C 
HETATM   33  N   UNL N   1     -55.903   5.647 -17.694  0.00  0.00    -0.073 N 
HETATM   34  C   UNL N   1     -55.588   4.704 -18.790  0.00  0.00     0.250 C 
HETATM   35  C   UNL N   1     -54.895   5.541 -16.628  0.00  0.00     0.269 C 
HETATM   36  H   UNL N   1     -55.877   6.627 -18.067  0.00  0.00     0.279 HD
HETATM   37  C   UNL N   1     -56.651   4.793 -19.889  0.00  0.00     0.135 C 
ENDBRANCH  27  30
ENDBRANCH   1  27
TORSDOF 7
ENDMDL
MODEL 4
REMARK VINA RESULT:      -6.3     15.703     19.925
REMARK  7 active torsions:
REMARK  status: ('A' for Active; 'I' for Inactive)
REMARK    1  A    between atoms: S_1  and  N_6 
REMARK    2  A    between atoms: S_1  and  C_18 
REMARK    3  A    between atoms: O_4  and  C_23 
REMARK    4  A    between atoms: O_4  and  C_34 
REMARK    5  A    between atoms: C_21  and  C_24 
REMARK    6  A    between atoms: C_28  and  C_29 
REMARK    7  A    between atoms: C_29  and  C_31 
ROOT
HETATM    1  C   UNL N   1     -58.862   2.073 -23.289  0.00  0.00     0.075 A 
HETATM    2  C   UNL N   1     -59.513   0.976 -22.730  0.00  0.00     0.042 A 
HETATM    3  C   UNL N   1     -59.345  -0.294 -23.277  0.00  0.00     0.043 A 
HETATM    4  C   UNL N   1     -58.032   1.908 -24.402  0.00  0.00     0.027 A 
HETATM    5  C   UNL N   1     -58.480  -0.481 -24.368  0.00  0.00     0.082 A 
HETATM    6  C   UNL N   1     -57.832   0.632 -24.938  0.00  0.00     0.039 A 
ENDROOT
BRANCH   3   7
HETATM    7  C   UNL N   1     -60.014  -1.443 -22.657  0.00  0.00     0.121 A 
HETATM    8  N   UNL N   1     -59.324  -2.617 -22.441  0.00  0.00    -0.307 N 
HETATM    9  C   UNL N   1     -59.961  -3.720 -21.911  0.00  0.00     0.277 A 
HETATM   10  H   UNL N   1     -58.319  -2.688 -22.719  0.00  0.00     0.170 HD
HETATM   11  O   UNL N   1     -59.360  -4.769 -21.754  0.00  0.00    -0.265 OA
HETATM   12  C   UNL N   1     -61.299  -3.591 -21.562  0.00  0.00     0.147 A 
HETATM   13  N   UNL N   1     -62.171  -4.469 -21.024  0.00  0.00    -0.289 N 
HETATM   14  C   UNL N   1     -61.930  -2.412 -21.745  0.00  0.00     0.092 A 
HETATM   15  N   UNL N   1     -63.340  -3.856 -20.847  0.00  0.00    -0.300 N 
HETATM   16  C   UNL N   1     -61.917  -5.862 -20.675  0.00  0.00     0.178 C 
HETATM   17  C   UNL N   1     -63.208  -2.575 -21.276  0.00  0.00     0.055 A 
ATOM     18  HN  UNL N   1     -64.185  -4.277 -20.459  1.00  0.00     0.187 HD
HETATM   19  N   UNL N   1     -61.331  -1.340 -22.307  0.00  0.00    -0.338 N 
ATOM     20  HN  UNL N   1     -61.848  -0.476 -22.466  1.00  0.00     0.167 HD
BRANCH  17  21
HETATM   21  C   UNL N   1     -64.277  -1.527 -21.200  0.00  0.00     0.061 C 
BRANCH  21  22
HETATM   22  C   UNL N   1     -64.935  -1.478 -19.821  0.00  0.00     0.002 C 
HETATM   23  C   UNL N   1     -66.317  -2.137 -19.846  0.00  0.00     0.005 C 
ENDBRANCH  21  22
ENDBRANCH  17  21
ENDBRANCH   3   7
BRANCH   5  24
HETATM   24  O   UNL N   1     -58.216  -1.748 -24.773  0.00  0.00    -0.351 OA
BRANCH  24  25
HETATM   25  C   UNL N   1     -57.045  -2.094 -25.420  0.00  0.00     0.171 C 
HETATM   26  C   UNL N   1     -57.359  -2.483 -26.855  0.00  0.00     0.034 C 
ENDBRANCH  24  25
ENDBRANCH   5  24
BRANCH   1  27
HETATM   27  S   UNL N   1     -59.019   3.662 -22.497  0.00  0.00     0.243 S 
HETATM   28  O   UNL N   1     -58.390   4.833 -23.269  0.00  0.00    -0.206 OA
HETATM   29  O   UNL N   1     -60.476   4.120 -22.325  0.00  0.00    -0.206 OA
BRANCH  27  30
HETATM   30  N   UNL N   1     -58.319   3.711 -20.864  0.00  0.00    -0.203 NA
HETATM   31  C   UNL N   1     -59.399   3.959 -19.895  0.00  0.00     0.135 C 
HETATM   32  C   UNL N   1     -58.816   4.047 -18.480  0.00  0.00     0.250 C 
HETATM   33  N   UNL N   1     -57.812   5.129 -18.402  0.00  0.00    -0.073 N 
HETATM   34  C   UNL N   1     -56.740   4.907 -19.398  0.00  0.00     0.250 C 
HETATM   35  C   UNL N   1     -57.241   5.196 -17.048  0.00  0.00     0.269 C 
HETATM   36  H   UNL N   1     -58.280   6.046 -18.602  0.00  0.00     0.279 HD
HETATM   37  C   UNL N   1     -57.336   4.809 -20.806  0.00  0.00     0.135 C 
ENDBRANCH  27  30
ENDBRANCH   1  27
TORSDOF 7
ENDMDL
MODEL 5
REMARK VINA RESULT:      -6.0     21.335     25.814
REMARK  7 active torsions:
REMARK  status: ('A' for Active; 'I' for Inactive)
REMARK    1  A    between atoms: S_1  and  N_6 
REMARK    2  A    between atoms: S_1  and  C_18 
REMARK    3  A    between atoms: O_4  and  C_23 
REMARK    4  A    between atoms: O_4  and  C_34 
REMARK    5  A    between atoms: C_21  and  C_24 
REMARK    6  A    between atoms: C_28  and  C_29 
REMARK    7  A    between atoms: C_29  and  C_31 
ROOT
HETATM    1  C   UNL N   1     -40.535   3.813 -19.241  0.00  0.00     0.075 A 
HETATM    2  C   UNL N   1     -40.530   2.928 -18.166  0.00  0.00     0.042 A 
HETATM    3  C   UNL N   1     -40.380   3.405 -16.865  0.00  0.00     0.043 A 
HETATM    4  C   UNL N   1     -40.393   5.187 -19.025  0.00  0.00     0.027 A 
HETATM    5  C   UNL N   1     -40.281   4.786 -16.630  0.00  0.00     0.082 A 
HETATM    6  C   UNL N   1     -40.275   5.678 -17.721  0.00  0.00     0.039 A 
ENDROOT
BRANCH   3   7
HETATM    7  C   UNL N   1     -40.408   2.463 -15.741  0.00  0.00     0.121 A 
HETATM    8  N   UNL N   1     -41.385   2.561 -14.774  0.00  0.00    -0.307 N 
HETATM    9  C   UNL N   1     -41.385   1.715 -13.684  0.00  0.00     0.277 A 
HETATM   10  H   UNL N   1     -42.111   3.310 -14.844  0.00  0.00     0.170 HD
HETATM   11  O   UNL N   1     -42.227   1.826 -12.811  0.00  0.00    -0.265 OA
HETATM   12  C   UNL N   1     -40.399   0.738 -13.622  0.00  0.00     0.147 A 
HETATM   13  N   UNL N   1     -40.148  -0.222 -12.708  0.00  0.00    -0.289 N 
HETATM   14  C   UNL N   1     -39.485   0.643 -14.612  0.00  0.00     0.092 A 
HETATM   15  N   UNL N   1     -39.100  -0.936 -13.114  0.00  0.00    -0.300 N 
HETATM   16  C   UNL N   1     -40.880  -0.473 -11.472  0.00  0.00     0.178 C 
HETATM   17  C   UNL N   1     -38.682  -0.424 -14.299  0.00  0.00     0.055 A 
ATOM     18  HN  UNL N   1     -38.685  -1.726 -12.620  1.00  0.00     0.187 HD
HETATM   19  N   UNL N   1     -39.447   1.495 -15.658  0.00  0.00    -0.338 N 
ATOM     20  HN  UNL N   1     -38.720   1.418 -16.369  1.00  0.00     0.167 HD
BRANCH  17  21
HETATM   21  C   UNL N   1     -37.559  -0.974 -15.127  0.00  0.00     0.061 C 
BRANCH  21  22
HETATM   22  C   UNL N   1     -36.377  -1.419 -14.266  0.00  0.00     0.002 C 
HETATM   23  C   UNL N   1     -35.046  -1.138 -14.970  0.00  0.00     0.005 C 
ENDBRANCH  21  22
ENDBRANCH  17  21
ENDBRANCH   3   7
BRANCH   5  24
HETATM   24  O   UNL N   1     -40.298   5.226 -15.347  0.00  0.00    -0.351 OA
BRANCH  24  25
HETATM   25  C   UNL N   1     -41.122   6.250 -14.922  0.00  0.00     0.171 C 
HETATM   26  C   UNL N   1     -40.752   6.636 -13.499  0.00  0.00     0.034 C 
ENDBRANCH  24  25
ENDBRANCH   5  24
BRANCH   1  27
HETATM   27  S   UNL N   1     -40.834   3.174 -20.879  0.00  0.00     0.243 S 
HETATM   28  O   UNL N   1     -41.637   1.864 -20.923  0.00  0.00    -0.206 OA
HETATM   29  O   UNL N   1     -41.676   4.112 -21.757  0.00  0.00    -0.206 OA
BRANCH  27  30
HETATM   30  N   UNL N   1     -39.347   2.878 -21.806  0.00  0.00    -0.203 NA
HETATM   31  C   UNL N   1     -38.344   2.280 -20.911  0.00  0.00     0.135 C 
HETATM   32  C   UNL N   1     -37.035   2.052 -21.676  0.00  0.00     0.250 C 
HETATM   33  N   UNL N   1     -36.527   3.328 -22.221  0.00  0.00    -0.073 N 
HETATM   34  C   UNL N   1     -37.544   3.954 -23.095  0.00  0.00     0.250 C 
HETATM   35  C   UNL N   1     -35.283   3.100 -22.972  0.00  0.00     0.269 C 
HETATM   36  H   UNL N   1     -36.311   3.978 -21.427  0.00  0.00     0.279 HD
HETATM   37  C   UNL N   1     -38.849   4.166 -22.322  0.00  0.00     0.135 C 
ENDBRANCH  27  30
ENDBRANCH   1  27
TORSDOF 7
ENDMDL
MODEL 6
REMARK VINA RESULT:      -5.9     19.811     24.381
REMARK  7 active torsions:
REMARK  status: ('A' for Active; 'I' for Inactive)
REMARK    1  A    between atoms: S_1  and  N_6 
REMARK    2  A    between atoms: S_1  and  C_18 
REMARK    3  A    between atoms: O_4  and  C_23 
REMARK    4  A    between atoms: O_4  and  C_34 
REMARK    5  A    between atoms: C_21  and  C_24 
REMARK    6  A    between atoms: C_28  and  C_29 
REMARK    7  A    between atoms: C_29  and  C_31 
ROOT
HETATM    1  C   UNL N   1     -54.943   5.921 -25.136  0.00  0.00     0.075 A 
HETATM    2  C   UNL N   1     -55.301   6.026 -23.795  0.00  0.00     0.042 A 
HETATM    3  C   UNL N   1     -56.259   5.170 -23.255  0.00  0.00     0.043 A 
HETATM    4  C   UNL N   1     -55.538   4.954 -25.952  0.00  0.00     0.027 A 
HETATM    5  C   UNL N   1     -56.833   4.165 -24.052  0.00  0.00     0.082 A 
HETATM    6  C   UNL N   1     -56.476   4.069 -25.412  0.00  0.00     0.039 A 
ENDROOT
BRANCH   3   7
HETATM    7  C   UNL N   1     -56.602   5.273 -21.833  0.00  0.00     0.121 A 
HETATM    8  N   UNL N   1     -55.687   4.912 -20.867  0.00  0.00    -0.307 N 
HETATM    9  C   UNL N   1     -56.023   4.953 -19.529  0.00  0.00     0.277 A 
HETATM   10  H   UNL N   1     -54.743   4.565 -21.150  0.00  0.00     0.170 HD
HETATM   11  O   UNL N   1     -55.226   4.599 -18.678  0.00  0.00    -0.265 OA
HETATM   12  C   UNL N   1     -57.290   5.411 -19.192  0.00  0.00     0.147 A 
HETATM   13  N   UNL N   1     -57.893   5.572 -17.996  0.00  0.00    -0.289 N 
HETATM   14  C   UNL N   1     -58.144   5.799 -20.163  0.00  0.00     0.092 A 
HETATM   15  N   UNL N   1     -59.111   6.074 -18.195  0.00  0.00    -0.300 N 
HETATM   16  C   UNL N   1     -57.340   5.264 -16.682  0.00  0.00     0.178 C 
HETATM   17  C   UNL N   1     -59.281   6.235 -19.532  0.00  0.00     0.055 A 
ATOM     18  HN  UNL N   1     -59.794   6.296 -17.471  1.00  0.00     0.187 HD
HETATM   19  N   UNL N   1     -57.844   5.719 -21.477  0.00  0.00    -0.338 N 
ATOM     20  HN  UNL N   1     -58.527   5.986 -22.186  1.00  0.00     0.167 HD
BRANCH  17  21
HETATM   21  C   UNL N   1     -60.496   6.829 -20.180  0.00  0.00     0.061 C 
BRANCH  21  22
HETATM   22  C   UNL N   1     -61.773   6.512 -19.403  0.00  0.00     0.002 C 
HETATM   23  C   UNL N   1     -62.364   5.168 -19.838  0.00  0.00     0.005 C 
ENDBRANCH  21  22
ENDBRANCH  17  21
ENDBRANCH   3   7
BRANCH   5  24
HETATM   24  O   UNL N   1     -57.638   3.251 -23.457  0.00  0.00    -0.351 OA
BRANCH  24  25
HETATM   25  C   UNL N   1     -58.443   2.387 -24.177  0.00  0.00     0.171 C 
HETATM   26  C   UNL N   1     -58.810   1.197 -23.305  0.00  0.00     0.034 C 
ENDBRANCH  24  25
ENDBRANCH   5  24
BRANCH   1  27
HETATM   27  S   UNL N   1     -53.639   6.964 -25.762  0.00  0.00     0.243 S 
HETATM   28  O   UNL N   1     -54.095   8.355 -26.231  0.00  0.00    -0.206 OA
HETATM   29  O   UNL N   1     -52.567   7.299 -24.714  0.00  0.00    -0.206 OA
BRANCH  27  30
HETATM   30  N   UNL N   1     -52.751   6.247 -27.124  0.00  0.00    -0.203 NA
HETATM   31  C   UNL N   1     -51.308   6.405 -26.882  0.00  0.00     0.135 C 
HETATM   32  C   UNL N   1     -50.518   5.830 -28.064  0.00  0.00     0.250 C 
HETATM   33  N   UNL N   1     -50.896   6.514 -29.318  0.00  0.00    -0.073 N 
HETATM   34  C   UNL N   1     -52.352   6.390 -29.551  0.00  0.00     0.250 C 
HETATM   35  C   UNL N   1     -50.150   5.945 -30.451  0.00  0.00     0.269 C 
HETATM   36  H   UNL N   1     -50.646   7.530 -29.243  0.00  0.00     0.279 HD
HETATM   37  C   UNL N   1     -53.130   6.957 -28.360  0.00  0.00     0.135 C 
ENDBRANCH  27  30
ENDBRANCH   1  27
TORSDOF 7
ENDMDL
MODEL 7
REMARK VINA RESULT:      -5.9      5.736     11.750
REMARK  7 active torsions:
REMARK  status: ('A' for Active; 'I' for Inactive)
REMARK    1  A    between atoms: S_1  and  N_6 
REMARK    2  A    between atoms: S_1  and  C_18 
REMARK    3  A    between atoms: O_4  and  C_23 
REMARK    4  A    between atoms: O_4  and  C_34 
REMARK    5  A    between atoms: C_21  and  C_24 
REMARK    6  A    between atoms: C_28  and  C_29 
REMARK    7  A    between atoms: C_29  and  C_31 
ROOT
HETATM    1  C   UNL N   1     -62.845 -16.756  -9.941  0.00  0.00     0.075 A 
HETATM    2  C   UNL N   1     -63.848 -16.482 -10.867  0.00  0.00     0.042 A 
HETATM    3  C   UNL N   1     -64.044 -17.324 -11.960  0.00  0.00     0.043 A 
HETATM    4  C   UNL N   1     -62.029 -17.881 -10.097  0.00  0.00     0.027 A 
HETATM    5  C   UNL N   1     -63.259 -18.480 -12.106  0.00  0.00     0.082 A 
HETATM    6  C   UNL N   1     -62.238 -18.749 -11.173  0.00  0.00     0.039 A 
ENDROOT
BRANCH   3   7
HETATM    7  C   UNL N   1     -65.124 -17.038 -12.909  0.00  0.00     0.121 A 
HETATM    8  N   UNL N   1     -64.839 -16.790 -14.235  0.00  0.00    -0.307 N 
HETATM    9  C   UNL N   1     -65.844 -16.464 -15.123  0.00  0.00     0.277 A 
HETATM   10  H   UNL N   1     -63.847 -16.809 -14.565  0.00  0.00     0.170 HD
HETATM   11  O   UNL N   1     -65.588 -16.210 -16.286  0.00  0.00    -0.265 OA
HETATM   12  C   UNL N   1     -67.149 -16.441 -14.645  0.00  0.00     0.147 A 
HETATM   13  N   UNL N   1     -68.320 -16.174 -15.258  0.00  0.00    -0.289 N 
HETATM   14  C   UNL N   1     -67.395 -16.734 -13.350  0.00  0.00     0.092 A 
HETATM   15  N   UNL N   1     -69.307 -16.311 -14.374  0.00  0.00    -0.300 N 
HETATM   16  C   UNL N   1     -68.519 -15.798 -16.653  0.00  0.00     0.178 C 
HETATM   17  C   UNL N   1     -68.755 -16.671 -13.188  0.00  0.00     0.055 A 
ATOM     18  HN  UNL N   1     -70.300 -16.170 -14.557  1.00  0.00     0.187 HD
HETATM   19  N   UNL N   1     -66.415 -17.007 -12.462  0.00  0.00    -0.338 N 
ATOM     20  HN  UNL N   1     -66.633 -17.187 -11.482  1.00  0.00     0.167 HD
BRANCH  17  21
HETATM   21  C   UNL N   1     -69.525 -16.983 -11.939  0.00  0.00     0.061 C 
BRANCH  21  22
HETATM   22  C   UNL N   1     -70.275 -18.311 -12.044  0.00  0.00     0.002 C 
HETATM   23  C   UNL N   1     -69.303 -19.494 -12.054  0.00  0.00     0.005 C 
ENDBRANCH  21  22
ENDBRANCH  17  21
ENDBRANCH   3   7
BRANCH   5  24
HETATM   24  O   UNL N   1     -63.580 -19.359 -13.088  0.00  0.00    -0.351 OA
BRANCH  24  25
HETATM   25  C   UNL N   1     -62.675 -19.763 -14.051  0.00  0.00     0.171 C 
HETATM   26  C   UNL N   1     -62.761 -21.271 -14.221  0.00  0.00     0.034 C 
ENDBRANCH  24  25
ENDBRANCH   5  24
BRANCH   1  27
HETATM   27  S   UNL N   1     -62.696 -15.716  -8.501  0.00  0.00     0.243 S 
HETATM   28  O   UNL N   1     -63.740 -14.591  -8.407  0.00  0.00    -0.206 OA
HETATM   29  O   UNL N   1     -62.898 -16.469  -7.177  0.00  0.00    -0.206 OA
BRANCH  27  30
HETATM   30  N   UNL N   1     -61.108 -14.933  -8.354  0.00  0.00    -0.203 NA
HETATM   31  C   UNL N   1     -61.027 -14.270  -7.043  0.00  0.00     0.135 C 
HETATM   32  C   UNL N   1     -59.680 -13.551  -6.907  0.00  0.00     0.250 C 
HETATM   33  N   UNL N   1     -59.516 -12.554  -7.985  0.00  0.00    -0.073 N 
HETATM   34  C   UNL N   1     -59.631 -13.206  -9.308  0.00  0.00     0.250 C 
HETATM   35  C   UNL N   1     -58.214 -11.882  -7.862  0.00  0.00     0.269 C 
HETATM   36  H   UNL N   1     -60.266 -11.826  -7.895  0.00  0.00     0.279 HD
HETATM   37  C   UNL N   1     -60.976 -13.930  -9.428  0.00  0.00     0.135 C 
ENDBRANCH  27  30
ENDBRANCH   1  27
TORSDOF 7
ENDMDL
MODEL 8
REMARK VINA RESULT:      -5.9      3.175      5.061
REMARK  7 active torsions:
REMARK  status: ('A' for Active; 'I' for Inactive)
REMARK    1  A    between atoms: S_1  and  N_6 
REMARK    2  A    between atoms: S_1  and  C_18 
REMARK    3  A    between atoms: O_4  and  C_23 
REMARK    4  A    between atoms: O_4  and  C_34 
REMARK    5  A    between atoms: C_21  and  C_24 
REMARK    6  A    between atoms: C_28  and  C_29 
REMARK    7  A    between atoms: C_29  and  C_31 
ROOT
HETATM    1  C   UNL N   1     -55.238 -12.511  -9.137  0.00  0.00     0.075 A 
HETATM    2  C   UNL N   1     -54.500 -11.414  -8.699  0.00  0.00     0.042 A 
HETATM    3  C   UNL N   1     -54.295 -10.324  -9.542  0.00  0.00     0.043 A 
HETATM    4  C   UNL N   1     -55.781 -12.527 -10.425  0.00  0.00     0.027 A 
HETATM    5  C   UNL N   1     -54.872 -10.309 -10.823  0.00  0.00     0.082 A 
HETATM    6  C   UNL N   1     -55.608 -11.425 -11.267  0.00  0.00     0.039 A 
ENDROOT
BRANCH   3   7
HETATM    7  C   UNL N   1     -53.542  -9.164  -9.055  0.00  0.00     0.121 A 
HETATM    8  N   UNL N   1     -52.163  -9.168  -9.078  0.00  0.00    -0.307 N 
HETATM    9  C   UNL N   1     -51.447  -8.104  -8.570  0.00  0.00     0.277 A 
HETATM   10  H   UNL N   1     -51.653 -10.002  -9.447  0.00  0.00     0.170 HD
HETATM   11  O   UNL N   1     -50.229  -8.124  -8.557  0.00  0.00    -0.265 OA
HETATM   12  C   UNL N   1     -52.161  -7.017  -8.080  0.00  0.00     0.147 A 
HETATM   13  N   UNL N   1     -51.753  -5.850  -7.539  0.00  0.00    -0.289 N 
HETATM   14  C   UNL N   1     -53.510  -7.029  -8.115  0.00  0.00     0.092 A 
HETATM   15  N   UNL N   1     -52.825  -5.116  -7.249  0.00  0.00    -0.300 N 
HETATM   16  C   UNL N   1     -50.379  -5.424  -7.300  0.00  0.00     0.178 C 
HETATM   17  C   UNL N   1     -53.925  -5.823  -7.610  0.00  0.00     0.055 A 
ATOM     18  HN  UNL N   1     -52.819  -4.186  -6.828  1.00  0.00     0.187 HD
HETATM   19  N   UNL N   1     -54.222  -8.084  -8.566  0.00  0.00    -0.338 N 
ATOM     20  HN  UNL N   1     -55.242  -8.075  -8.544  1.00  0.00     0.167 HD
BRANCH  17  21
HETATM   21  C   UNL N   1     -55.338  -5.332  -7.506  0.00  0.00     0.061 C 
BRANCH  21  22
HETATM   22  C   UNL N   1     -55.948  -5.044  -8.877  0.00  0.00     0.002 C 
HETATM   23  C   UNL N   1     -57.359  -5.631  -8.987  0.00  0.00     0.005 C 
ENDBRANCH  21  22
ENDBRANCH  17  21
ENDBRANCH   3   7
BRANCH   5  24
HETATM   24  O   UNL N   1     -54.787  -9.170 -11.556  0.00  0.00    -0.351 OA
BRANCH  24  25
HETATM   25  C   UNL N   1     -55.889  -8.387 -11.845  0.00  0.00     0.171 C 
HETATM   26  C   UNL N   1     -56.281  -8.588 -13.300  0.00  0.00     0.034 C 
ENDBRANCH  24  25
ENDBRANCH   5  24
BRANCH   1  27
HETATM   27  S   UNL N   1     -55.567 -13.838  -7.992  0.00  0.00     0.243 S 
HETATM   28  O   UNL N   1     -55.092 -15.224  -8.457  0.00  0.00    -0.206 OA
HETATM   29  O   UNL N   1     -54.851 -13.674  -6.642  0.00  0.00    -0.206 OA
BRANCH  27  30
HETATM   30  N   UNL N   1     -57.288 -14.013  -7.588  0.00  0.00    -0.203 NA
HETATM   31  C   UNL N   1     -57.787 -12.726  -7.078  0.00  0.00     0.135 C 
HETATM   32  C   UNL N   1     -59.262 -12.860  -6.682  0.00  0.00     0.250 C 
HETATM   33  N   UNL N   1     -59.426 -13.906  -5.652  0.00  0.00    -0.073 N 
HETATM   34  C   UNL N   1     -58.895 -15.197  -6.143  0.00  0.00     0.250 C 
HETATM   35  C   UNL N   1     -60.845 -14.046  -5.290  0.00  0.00     0.269 C 
HETATM   36  H   UNL N   1     -58.899 -13.625  -4.790  0.00  0.00     0.279 HD
HETATM   37  C   UNL N   1     -57.425 -15.047  -6.546  0.00  0.00     0.135 C 
ENDBRANCH  27  30
ENDBRANCH   1  27
TORSDOF 7
ENDMDL
MODEL 9
REMARK VINA RESULT:      -5.8      5.569     11.326
REMARK  7 active torsions:
REMARK  status: ('A' for Active; 'I' for Inactive)
REMARK    1  A    between atoms: S_1  and  N_6 
REMARK    2  A    between atoms: S_1  and  C_18 
REMARK    3  A    between atoms: O_4  and  C_23 
REMARK    4  A    between atoms: O_4  and  C_34 
REMARK    5  A    between atoms: C_21  and  C_24 
REMARK    6  A    between atoms: C_28  and  C_29 
REMARK    7  A    between atoms: C_29  and  C_31 
ROOT
HETATM    1  C   UNL N   1     -62.557 -17.055  -9.561  0.00  0.00     0.075 A 
HETATM    2  C   UNL N   1     -63.660 -16.792 -10.368  0.00  0.00     0.042 A 
HETATM    3  C   UNL N   1     -63.923 -17.589 -11.480  0.00  0.00     0.043 A 
HETATM    4  C   UNL N   1     -61.705 -18.124  -9.857  0.00  0.00     0.027 A 
HETATM    5  C   UNL N   1     -63.100 -18.692 -11.765  0.00  0.00     0.082 A 
HETATM    6  C   UNL N   1     -61.978 -18.949 -10.952  0.00  0.00     0.039 A 
ENDROOT
BRANCH   3   7
HETATM    7  C   UNL N   1     -65.107 -17.317 -12.303  0.00  0.00     0.121 A 
HETATM    8  N   UNL N   1     -66.345 -17.783 -11.916  0.00  0.00    -0.307 N 
HETATM    9  C   UNL N   1     -67.454 -17.580 -12.712  0.00  0.00     0.277 A 
HETATM   10  H   UNL N   1     -66.441 -18.331 -11.031  0.00  0.00     0.170 HD
HETATM   11  O   UNL N   1     -68.542 -18.023 -12.388  0.00  0.00    -0.265 OA
HETATM   12  C   UNL N   1     -67.285 -16.855 -13.886  0.00  0.00     0.147 A 
HETATM   13  N   UNL N   1     -68.162 -16.492 -14.845  0.00  0.00    -0.289 N 
HETATM   14  C   UNL N   1     -66.066 -16.375 -14.209  0.00  0.00     0.092 A 
HETATM   15  N   UNL N   1     -67.517 -15.772 -15.762  0.00  0.00    -0.300 N 
HETATM   16  C   UNL N   1     -69.584 -16.807 -14.904  0.00  0.00     0.178 C 
HETATM   17  C   UNL N   1     -66.218 -15.677 -15.380  0.00  0.00     0.055 A 
ATOM     18  HN  UNL N   1     -67.928 -15.367 -16.603  1.00  0.00     0.187 HD
HETATM   19  N   UNL N   1     -64.965 -16.608 -13.462  0.00  0.00    -0.338 N 
ATOM     20  HN  UNL N   1     -64.052 -16.262 -13.755  1.00  0.00     0.167 HD
BRANCH  17  21
HETATM   21  C   UNL N   1     -65.161 -14.902 -16.107  0.00  0.00     0.061 C 
BRANCH  21  22
HETATM   22  C   UNL N   1     -65.039 -15.329 -17.569  0.00  0.00     0.002 C 
HETATM   23  C   UNL N   1     -64.517 -16.765 -17.682  0.00  0.00     0.005 C 
ENDBRANCH  21  22
ENDBRANCH  17  21
ENDBRANCH   3   7
BRANCH   5  24
HETATM   24  O   UNL N   1     -63.474 -19.538 -12.756  0.00  0.00    -0.351 OA
BRANCH  24  25
HETATM   25  C   UNL N   1     -63.586 -20.903 -12.568  0.00  0.00     0.171 C 
HETATM   26  C   UNL N   1     -64.860 -21.201 -11.795  0.00  0.00     0.034 C 
ENDBRANCH  24  25
ENDBRANCH   5  24
BRANCH   1  27
HETATM   27  S   UNL N   1     -62.316 -16.079  -8.089  0.00  0.00     0.243 S 
HETATM   28  O   UNL N   1     -63.453 -15.094  -7.775  0.00  0.00    -0.206 OA
HETATM   29  O   UNL N   1     -62.236 -16.917  -6.804  0.00  0.00    -0.206 OA
BRANCH  27  30
HETATM   30  N   UNL N   1     -60.820 -15.120  -8.113  0.00  0.00    -0.203 NA
HETATM   31  C   UNL N   1     -60.779 -14.278  -6.906  0.00  0.00     0.135 C 
HETATM   32  C   UNL N   1     -59.517 -13.409  -6.921  0.00  0.00     0.250 C 
HETATM   33  N   UNL N   1     -59.492 -12.557  -8.129  0.00  0.00    -0.073 N 
HETATM   34  C   UNL N   1     -59.568 -13.393  -9.347  0.00  0.00     0.250 C 
HETATM   35  C   UNL N   1     -58.269 -11.740  -8.149  0.00  0.00     0.269 C 
HETATM   36  H   UNL N   1     -60.315 -11.908  -8.107  0.00  0.00     0.279 HD
HETATM   37  C   UNL N   1     -60.827 -14.265  -9.315  0.00  0.00     0.135 C 
ENDBRANCH  27  30
ENDBRANCH   1  27
TORSDOF 7
ENDMDL
