MODEL 1
REMARK VINA RESULT:    -3.980      0.000      0.000
REMARK INTER + INTRA:          -5.384
REMARK INTER:                  -5.143
REMARK INTRA:                  -0.242
REMARK UNBOUND:                -0.242
REMARK  5 active torsions:
REMARK  status: ('A' for Active; 'I' for Inactive)
REMARK    1  A    between atoms: C2_3  and  C7_10 
REMARK    2  A    between atoms: C7_10  and  C8_11 
REMARK    3  A    between atoms: C8_11  and  C9_12 
REMARK    4  A    between atoms: C9_12  and  C10_13 
REMARK    5  A    between atoms: C10_13  and  C11_14 
ROOT
HETATM    1  N1  BTN A 300       9.403  11.018   1.243  1.00 17.73    -0.217 NA
HETATM    2  S1  BTN A 300      11.681  12.117   3.390  1.00 16.59    -0.137 SA
HETATM    3  C2  BTN A 300      11.345  10.428   4.037  1.00 17.74     0.072 C 
HETATM    4  N2  BTN A 300       9.001  10.193   3.224  1.00 17.92    -0.217 NA
HETATM    5  C3  BTN A 300       8.474  10.896   2.197  1.00 17.95     0.360 A 
HETATM    6  O3  BTN A 300       7.301  11.327   2.207  1.00 17.93    -0.243 OA
HETATM    7  C4  BTN A 300      10.392   9.812   2.985  1.00 17.65     0.141 A 
HETATM    8  C5  BTN A 300      10.672  10.387   1.600  1.00 17.47     0.142 A 
HETATM    9  C6  BTN A 300      11.816  11.389   1.715  1.00 17.06     0.084 C 
ENDROOT
BRANCH   3  10
HETATM   10  C7  BTN A 300      10.803  10.228   5.394  1.00 18.33     0.013 C 
BRANCH  10  11
HETATM   11  C8  BTN A 300      10.778   8.875   6.104  1.00 19.24     0.002 C 
BRANCH  11  12
HETATM   12  C9  BTN A 300      11.666   8.767   7.277  1.00 20.09     0.011 C 
BRANCH  12  13
HETATM   13  C10 BTN A 300      12.044  10.157   7.896  1.00 20.77     0.098 C 
BRANCH  13  14
HETATM   14  C11 BTN A 300      13.064  10.010   8.969  1.00 21.57     0.185 C 
HETATM   15  O11 BTN A 300      13.063   9.127   9.837  1.00 21.65    -0.647 OA
HETATM   16  O12 BTN A 300      13.672  11.140   9.275  1.00 22.67    -0.647 OA
ENDBRANCH  13  14
ENDBRANCH  12  13
ENDBRANCH  11  12
ENDBRANCH  10  11
ENDBRANCH   3  10
TORSDOF 5
ENDMDL
MODEL 2
REMARK VINA RESULT:    -3.938      1.774      2.334
REMARK INTER + INTRA:          -5.331
REMARK INTER:                  -4.951
REMARK INTRA:                  -0.380
REMARK UNBOUND:                -0.242
REMARK  5 active torsions:
REMARK  status: ('A' for Active; 'I' for Inactive)
REMARK    1  A    between atoms: C2_3  and  C7_10 
REMARK    2  A    between atoms: C7_10  and  C8_11 
REMARK    3  A    between atoms: C8_11  and  C9_12 
REMARK    4  A    between atoms: C9_12  and  C10_13 
REMARK    5  A    between atoms: C10_13  and  C11_14 
ROOT
HETATM    1  N1  BTN A 300      11.058  10.815   1.603  1.00 17.73    -0.217 NA
HETATM    2  S1  BTN A 300      10.267  13.200   3.768  1.00 16.59    -0.137 SA
HETATM    3  C2  BTN A 300      11.233  12.044   4.825  1.00 17.74     0.072 C 
HETATM    4  N2  BTN A 300      10.756   9.938   3.580  1.00 17.92    -0.217 NA
HETATM    5  C3  BTN A 300      10.378   9.886   2.284  1.00 17.95     0.360 A 
HETATM    6  O3  BTN A 300       9.527   9.074   1.862  1.00 17.93    -0.243 OA
HETATM    7  C4  BTN A 300      11.752  10.980   3.830  1.00 17.65     0.141 A 
HETATM    8  C5  BTN A 300      11.964  11.590   2.448  1.00 17.47     0.142 A 
HETATM    9  C6  BTN A 300      11.591  13.067   2.510  1.00 17.06     0.084 C 
ENDROOT
BRANCH   3  10
HETATM   10  C7  BTN A 300      10.617  11.390   5.995  1.00 18.33     0.013 C 
BRANCH  10  11
HETATM   11  C8  BTN A 300      11.133  11.553   7.423  1.00 19.24     0.002 C 
BRANCH  11  12
HETATM   12  C9  BTN A 300      11.988  10.453   7.911  1.00 20.09     0.011 C 
BRANCH  12  13
HETATM   13  C10 BTN A 300      11.760   9.106   7.141  1.00 20.77     0.098 C 
BRANCH  13  14
HETATM   14  C11 BTN A 300      11.528   7.980   8.084  1.00 21.57     0.185 C 
HETATM   15  O11 BTN A 300      10.748   7.037   7.891  1.00 21.65    -0.647 OA
HETATM   16  O12 BTN A 300      11.788   8.282   9.341  1.00 22.67    -0.647 OA
ENDBRANCH  13  14
ENDBRANCH  12  13
ENDBRANCH  11  12
ENDBRANCH  10  11
ENDBRANCH   3  10
TORSDOF 5
ENDMDL
MODEL 3
REMARK VINA RESULT:    -3.914     17.874     19.632
REMARK INTER + INTRA:          -5.299
REMARK INTER:                  -4.824
REMARK INTRA:                  -0.475
REMARK UNBOUND:                -0.242
REMARK  5 active torsions:
REMARK  status: ('A' for Active; 'I' for Inactive)
REMARK    1  A    between atoms: C2_3  and  C7_10 
REMARK    2  A    between atoms: C7_10  and  C8_11 
REMARK    3  A    between atoms: C8_11  and  C9_12 
REMARK    4  A    between atoms: C9_12  and  C10_13 
REMARK    5  A    between atoms: C10_13  and  C11_14 
ROOT
HETATM    1  N1  BTN A 300      21.978  -1.495  18.328  1.00 17.73    -0.217 NA
HETATM    2  S1  BTN A 300      22.549   1.581  17.226  1.00 16.59    -0.137 SA
HETATM    3  C2  BTN A 300      20.857   1.263  16.578  1.00 17.74     0.072 C 
HETATM    4  N2  BTN A 300      21.006  -1.218  16.392  1.00 17.92    -0.217 NA
HETATM    5  C3  BTN A 300      21.874  -1.985  17.088  1.00 17.95     0.360 A 
HETATM    6  O3  BTN A 300      22.446  -2.978  16.589  1.00 17.93    -0.243 OA
HETATM    7  C4  BTN A 300      20.481  -0.109  17.186  1.00 17.65     0.141 A 
HETATM    8  C5  BTN A 300      21.158  -0.304  18.539  1.00 17.47     0.142 A 
HETATM    9  C6  BTN A 300      21.990   0.936  18.847  1.00 17.06     0.084 C 
ENDROOT
BRANCH   3  10
HETATM   10  C7  BTN A 300      20.586   1.268  15.128  1.00 18.33     0.013 C 
BRANCH  10  11
HETATM   11  C8  BTN A 300      21.645   1.571  14.071  1.00 19.24     0.002 C 
BRANCH  11  12
HETATM   12  C9  BTN A 300      22.069   0.414  13.259  1.00 20.09     0.011 C 
BRANCH  12  13
HETATM   13  C10 BTN A 300      23.388  -0.256  13.780  1.00 20.77     0.098 C 
BRANCH  13  14
HETATM   14  C11 BTN A 300      24.521  -0.014  12.847  1.00 21.57     0.185 C 
HETATM   15  O11 BTN A 300      24.737   1.049  12.249  1.00 21.65    -0.647 OA
HETATM   16  O12 BTN A 300      24.983  -1.113  12.285  1.00 22.67    -0.647 OA
ENDBRANCH  13  14
ENDBRANCH  12  13
ENDBRANCH  11  12
ENDBRANCH  10  11
ENDBRANCH   3  10
TORSDOF 5
ENDMDL
MODEL 4
REMARK VINA RESULT:    -3.913      3.782      7.403
REMARK INTER + INTRA:          -5.298
REMARK INTER:                  -5.132
REMARK INTRA:                  -0.166
REMARK UNBOUND:                -0.242
REMARK  5 active torsions:
REMARK  status: ('A' for Active; 'I' for Inactive)
REMARK    1  A    between atoms: C2_3  and  C7_10 
REMARK    2  A    between atoms: C7_10  and  C8_11 
REMARK    3  A    between atoms: C8_11  and  C9_12 
REMARK    4  A    between atoms: C9_12  and  C10_13 
REMARK    5  A    between atoms: C10_13  and  C11_14 
ROOT
HETATM    1  N1  BTN A 300      12.968   9.926  11.122  1.00 17.73    -0.217 NA
HETATM    2  S1  BTN A 300      10.322   9.555   9.156  1.00 16.59    -0.137 SA
HETATM    3  C2  BTN A 300      11.705   9.319   7.966  1.00 17.74     0.072 C 
HETATM    4  N2  BTN A 300      13.421  10.701   9.131  1.00 17.92    -0.217 NA
HETATM    5  C3  BTN A 300      13.394  11.000  10.449  1.00 17.95     0.360 A 
HETATM    6  O3  BTN A 300      13.731  12.119  10.893  1.00 17.93    -0.243 OA
HETATM    7  C4  BTN A 300      12.968   9.338   8.860  1.00 17.65     0.141 A 
HETATM    8  C5  BTN A 300      12.655   8.796  10.250  1.00 17.47     0.142 A 
HETATM    9  C6  BTN A 300      11.181   8.408  10.297  1.00 17.06     0.084 C 
ENDROOT
BRANCH   3  10
HETATM   10  C7  BTN A 300      11.882  10.225   6.816  1.00 18.33     0.013 C 
BRANCH  10  11
HETATM   11  C8  BTN A 300      10.782  10.526   5.800  1.00 19.24     0.002 C 
BRANCH  11  12
HETATM   12  C9  BTN A 300      10.961   9.898   4.477  1.00 20.09     0.011 C 
BRANCH  12  13
HETATM   13  C10 BTN A 300       9.911  10.381   3.417  1.00 20.77     0.098 C 
BRANCH  13  14
HETATM   14  C11 BTN A 300      10.441  10.248   2.034  1.00 21.57     0.185 C 
HETATM   15  O11 BTN A 300      10.170   9.325   1.253  1.00 21.65    -0.647 OA
HETATM   16  O12 BTN A 300      11.596  10.857   1.851  1.00 22.67    -0.647 OA
ENDBRANCH  13  14
ENDBRANCH  12  13
ENDBRANCH  11  12
ENDBRANCH  10  11
ENDBRANCH   3  10
TORSDOF 5
ENDMDL
MODEL 5
REMARK VINA RESULT:    -3.888     18.144     19.223
REMARK INTER + INTRA:          -5.266
REMARK INTER:                  -4.611
REMARK INTRA:                  -0.655
REMARK UNBOUND:                -0.242
REMARK  5 active torsions:
REMARK  status: ('A' for Active; 'I' for Inactive)
REMARK    1  A    between atoms: C2_3  and  C7_10 
REMARK    2  A    between atoms: C7_10  and  C8_11 
REMARK    3  A    between atoms: C8_11  and  C9_12 
REMARK    4  A    between atoms: C9_12  and  C10_13 
REMARK    5  A    between atoms: C10_13  and  C11_14 
ROOT
HETATM    1  N1  BTN A 300      21.520  -2.437  15.604  1.00 17.73    -0.217 NA
HETATM    2  S1  BTN A 300      22.055   0.687  16.583  1.00 16.59    -0.137 SA
HETATM    3  C2  BTN A 300      21.342   0.940  14.907  1.00 17.74     0.072 C 
HETATM    4  N2  BTN A 300      22.066  -1.212  13.880  1.00 17.92    -0.217 NA
HETATM    5  C3  BTN A 300      22.373  -2.327  14.580  1.00 17.95     0.360 A 
HETATM    6  O3  BTN A 300      23.314  -3.085  14.261  1.00 17.93    -0.243 OA
HETATM    7  C4  BTN A 300      20.937  -0.484  14.458  1.00 17.65     0.141 A 
HETATM    8  C5  BTN A 300      20.555  -1.341  15.661  1.00 17.47     0.142 A 
HETATM    9  C6  BTN A 300      20.698  -0.496  16.922  1.00 17.06     0.084 C 
ENDROOT
BRANCH   3  10
HETATM   10  C7  BTN A 300      22.117   1.608  13.844  1.00 18.33     0.013 C 
BRANCH  10  11
HETATM   11  C8  BTN A 300      23.273   2.567  14.116  1.00 19.24     0.002 C 
BRANCH  11  12
HETATM   12  C9  BTN A 300      24.614   2.040  13.797  1.00 20.09     0.011 C 
BRANCH  12  13
HETATM   13  C10 BTN A 300      24.618   1.066  12.568  1.00 20.77     0.098 C 
BRANCH  13  14
HETATM   14  C11 BTN A 300      25.292  -0.217  12.899  1.00 21.57     0.185 C 
HETATM   15  O11 BTN A 300      25.264  -1.239  12.199  1.00 21.65    -0.647 OA
HETATM   16  O12 BTN A 300      25.486  -0.392  14.192  1.00 22.67    -0.647 OA
ENDBRANCH  13  14
ENDBRANCH  12  13
ENDBRANCH  11  12
ENDBRANCH  10  11
ENDBRANCH   3  10
TORSDOF 5
ENDMDL
MODEL 6
REMARK VINA RESULT:    -3.855      2.850      4.268
REMARK INTER + INTRA:          -5.223
REMARK INTER:                  -4.582
REMARK INTRA:                  -0.641
REMARK UNBOUND:                -0.242
REMARK  5 active torsions:
REMARK  status: ('A' for Active; 'I' for Inactive)
REMARK    1  A    between atoms: C2_3  and  C7_10 
REMARK    2  A    between atoms: C7_10  and  C8_11 
REMARK    3  A    between atoms: C8_11  and  C9_12 
REMARK    4  A    between atoms: C9_12  and  C10_13 
REMARK    5  A    between atoms: C10_13  and  C11_14 
ROOT
HETATM    1  N1  BTN A 300       7.451   7.690   3.372  1.00 17.73    -0.217 NA
HETATM    2  S1  BTN A 300       7.697  10.617   1.830  1.00 16.59    -0.137 SA
HETATM    3  C2  BTN A 300       9.229   9.770   1.265  1.00 17.74     0.072 C 
HETATM    4  N2  BTN A 300       9.552   8.268   3.227  1.00 17.92    -0.217 NA
HETATM    5  C3  BTN A 300       8.569   7.899   4.077  1.00 17.95     0.360 A 
HETATM    6  O3  BTN A 300       8.748   7.789   5.309  1.00 17.93    -0.243 OA
HETATM    7  C4  BTN A 300       9.094   8.340   1.840  1.00 17.65     0.141 A 
HETATM    8  C5  BTN A 300       7.628   7.934   1.941  1.00 17.47     0.142 A 
HETATM    9  C6  BTN A 300       6.770   9.088   1.432  1.00 17.06     0.084 C 
ENDROOT
BRANCH   3  10
HETATM   10  C7  BTN A 300      10.561  10.321   1.576  1.00 18.33     0.013 C 
BRANCH  10  11
HETATM   11  C8  BTN A 300      10.818  11.798   1.869  1.00 19.24     0.002 C 
BRANCH  11  12
HETATM   12  C9  BTN A 300      11.228  12.101   3.253  1.00 20.09     0.011 C 
BRANCH  12  13
HETATM   13  C10 BTN A 300      11.961  10.906   3.956  1.00 20.77     0.098 C 
BRANCH  13  14
HETATM   14  C11 BTN A 300      11.339  10.588   5.268  1.00 21.57     0.185 C 
HETATM   15  O11 BTN A 300      11.717   9.695   6.039  1.00 21.65    -0.647 OA
HETATM   16  O12 BTN A 300      10.070  10.940   5.348  1.00 22.67    -0.647 OA
ENDBRANCH  13  14
ENDBRANCH  12  13
ENDBRANCH  11  12
ENDBRANCH  10  11
ENDBRANCH   3  10
TORSDOF 5
ENDMDL
MODEL 7
REMARK VINA RESULT:    -3.815      2.151      3.007
REMARK INTER + INTRA:          -5.172
REMARK INTER:                  -4.853
REMARK INTRA:                  -0.319
REMARK UNBOUND:                -0.242
REMARK  5 active torsions:
REMARK  status: ('A' for Active; 'I' for Inactive)
REMARK    1  A    between atoms: C2_3  and  C7_10 
REMARK    2  A    between atoms: C7_10  and  C8_11 
REMARK    3  A    between atoms: C8_11  and  C9_12 
REMARK    4  A    between atoms: C9_12  and  C10_13 
REMARK    5  A    between atoms: C10_13  and  C11_14 
ROOT
HETATM    1  N1  BTN A 300       7.842   9.141   1.605  1.00 17.73    -0.217 NA
HETATM    2  S1  BTN A 300       8.773  11.829   3.310  1.00 16.59    -0.137 SA
HETATM    3  C2  BTN A 300      10.188  11.615   2.154  1.00 17.74     0.072 C 
HETATM    4  N2  BTN A 300      10.015   9.150   1.829  1.00 17.92    -0.217 NA
HETATM    5  C3  BTN A 300       8.890   8.429   2.036  1.00 17.95     0.360 A 
HETATM    6  O3  BTN A 300       8.904   7.290   2.548  1.00 17.93    -0.243 OA
HETATM    7  C4  BTN A 300       9.739  10.456   1.233  1.00 17.65     0.141 A 
HETATM    8  C5  BTN A 300       8.222  10.448   1.074  1.00 17.47     0.142 A 
HETATM    9  C6  BTN A 300       7.645  11.603   1.885  1.00 17.06     0.084 C 
ENDROOT
BRANCH   3  10
HETATM   10  C7  BTN A 300      11.551  11.365   2.659  1.00 18.33     0.013 C 
BRANCH  10  11
HETATM   11  C8  BTN A 300      11.930  11.429   4.137  1.00 19.24     0.002 C 
BRANCH  11  12
HETATM   12  C9  BTN A 300      11.777  10.162   4.878  1.00 20.09     0.011 C 
BRANCH  12  13
HETATM   13  C10 BTN A 300      11.586  10.369   6.421  1.00 20.77     0.098 C 
BRANCH  13  14
HETATM   14  C11 BTN A 300      11.533   9.066   7.137  1.00 21.57     0.185 C 
HETATM   15  O11 BTN A 300      12.382   8.660   7.942  1.00 21.65    -0.647 OA
HETATM   16  O12 BTN A 300      10.830   8.146   6.505  1.00 22.67    -0.647 OA
ENDBRANCH  13  14
ENDBRANCH  12  13
ENDBRANCH  11  12
ENDBRANCH  10  11
ENDBRANCH   3  10
TORSDOF 5
ENDMDL
MODEL 8
REMARK VINA RESULT:    -3.810     17.803     18.853
REMARK INTER + INTRA:          -5.165
REMARK INTER:                  -4.807
REMARK INTRA:                  -0.358
REMARK UNBOUND:                -0.242
REMARK  5 active torsions:
REMARK  status: ('A' for Active; 'I' for Inactive)
REMARK    1  A    between atoms: C2_3  and  C7_10 
REMARK    2  A    between atoms: C7_10  and  C8_11 
REMARK    3  A    between atoms: C8_11  and  C9_12 
REMARK    4  A    between atoms: C9_12  and  C10_13 
REMARK    5  A    between atoms: C10_13  and  C11_14 
ROOT
HETATM    1  N1  BTN A 300      20.656  -1.307  16.152  1.00 17.73    -0.217 NA
HETATM    2  S1  BTN A 300      22.900   1.060  16.753  1.00 16.59    -0.137 SA
HETATM    3  C2  BTN A 300      21.837   1.869  15.488  1.00 17.74     0.072 C 
HETATM    4  N2  BTN A 300      21.045  -0.184  14.320  1.00 17.92    -0.217 NA
HETATM    5  C3  BTN A 300      21.025  -1.418  14.872  1.00 17.95     0.360 A 
HETATM    6  O3  BTN A 300      21.315  -2.449  14.228  1.00 17.93    -0.243 OA
HETATM    7  C4  BTN A 300      20.683   0.860  15.276  1.00 17.65     0.141 A 
HETATM    8  C5  BTN A 300      20.409   0.076  16.555  1.00 17.47     0.142 A 
HETATM    9  C6  BTN A 300      21.375   0.556  17.633  1.00 17.06     0.084 C 
ENDROOT
BRANCH   3  10
HETATM   10  C7  BTN A 300      22.390   2.291  14.188  1.00 18.33     0.013 C 
BRANCH  10  11
HETATM   11  C8  BTN A 300      23.884   2.309  13.870  1.00 19.24     0.002 C 
BRANCH  11  12
HETATM   12  C9  BTN A 300      24.401   1.088  13.222  1.00 20.09     0.011 C 
BRANCH  12  13
HETATM   13  C10 BTN A 300      25.294   1.386  11.968  1.00 20.77     0.098 C 
BRANCH  13  14
HETATM   14  C11 BTN A 300      26.590   2.000  12.362  1.00 21.57     0.185 C 
HETATM   15  O11 BTN A 300      27.303   1.620  13.301  1.00 21.65    -0.647 OA
HETATM   16  O12 BTN A 300      26.701   3.266  12.011  1.00 22.67    -0.647 OA
ENDBRANCH  13  14
ENDBRANCH  12  13
ENDBRANCH  11  12
ENDBRANCH  10  11
ENDBRANCH   3  10
TORSDOF 5
ENDMDL
MODEL 9
REMARK VINA RESULT:    -3.660     17.601     19.007
REMARK INTER + INTRA:          -4.971
REMARK INTER:                  -4.558
REMARK INTRA:                  -0.413
REMARK UNBOUND:                -0.242
REMARK  5 active torsions:
REMARK  status: ('A' for Active; 'I' for Inactive)
REMARK    1  A    between atoms: C2_3  and  C7_10 
REMARK    2  A    between atoms: C7_10  and  C8_11 
REMARK    3  A    between atoms: C8_11  and  C9_12 
REMARK    4  A    between atoms: C9_12  and  C10_13 
REMARK    5  A    between atoms: C10_13  and  C11_14 
ROOT
HETATM    1  N1  BTN A 300      20.553  -3.599  15.437  1.00 17.73    -0.217 NA
HETATM    2  S1  BTN A 300      23.383  -2.224  14.388  1.00 16.59    -0.137 SA
HETATM    3  C2  BTN A 300      22.332  -0.741  14.669  1.00 17.74     0.072 C 
HETATM    4  N2  BTN A 300      20.109  -1.799  14.283  1.00 17.92    -0.217 NA
HETATM    5  C3  BTN A 300      19.864  -3.123  14.395  1.00 17.95     0.360 A 
HETATM    6  O3  BTN A 300      19.103  -3.736  13.615  1.00 17.93    -0.243 OA
HETATM    7  C4  BTN A 300      21.042  -1.317  15.300  1.00 17.65     0.141 A 
HETATM    8  C5  BTN A 300      21.350  -2.573  16.108  1.00 17.47     0.142 A 
HETATM    9  C6  BTN A 300      22.848  -2.846  16.026  1.00 17.06     0.084 C 
ENDROOT
BRANCH   3  10
HETATM   10  C7  BTN A 300      21.993   0.172  13.561  1.00 18.33     0.013 C 
BRANCH  10  11
HETATM   11  C8  BTN A 300      21.702   1.659  13.751  1.00 19.24     0.002 C 
BRANCH  11  12
HETATM   12  C9  BTN A 300      22.428   2.304  14.861  1.00 20.09     0.011 C 
BRANCH  12  13
HETATM   13  C10 BTN A 300      23.577   3.255  14.378  1.00 20.77     0.098 C 
BRANCH  13  14
HETATM   14  C11 BTN A 300      24.843   2.504  14.162  1.00 21.57     0.185 C 
HETATM   15  O11 BTN A 300      25.139   1.889  13.128  1.00 21.65    -0.647 OA
HETATM   16  O12 BTN A 300      25.405   2.087  15.280  1.00 22.67    -0.647 OA
ENDBRANCH  13  14
ENDBRANCH  12  13
ENDBRANCH  11  12
ENDBRANCH  10  11
ENDBRANCH   3  10
TORSDOF 5
ENDMDL
