MODEL 1
REMARK VINA RESULT:    -3.916      0.000      0.000
REMARK INTER + INTRA:          -5.390
REMARK INTER:                  -5.061
REMARK INTRA:                  -0.329
REMARK UNBOUND:                -0.329
REMARK  5 active torsions:
REMARK  status: ('A' for Active; 'I' for Inactive)
REMARK    1  A    between atoms: C2_3  and  C7_10 
REMARK    2  A    between atoms: C7_10  and  C8_11 
REMARK    3  A    between atoms: C8_11  and  C9_12 
REMARK    4  A    between atoms: C9_12  and  C10_13 
REMARK    5  A    between atoms: C10_13  and  C11_14 
ROOT
HETATM    1  N1  BTN A 300       8.242  -5.918  -8.293  1.00 17.73    -0.217 NA
HETATM    2  S1  BTN A 300       6.261  -3.802  -9.906  1.00 16.59    -0.137 SA
HETATM    3  C2  BTN A 300       7.871  -3.521 -10.751  1.00 17.74     0.072 C 
HETATM    4  N2  BTN A 300       9.378  -4.142  -8.866  1.00 17.92    -0.217 NA
HETATM    5  C3  BTN A 300       9.019  -4.933  -7.830  1.00 17.95     0.360 A 
HETATM    6  O3  BTN A 300       9.393  -4.718  -6.657  1.00 17.93    -0.243 OA
HETATM    7  C4  BTN A 300       8.804  -4.590 -10.134  1.00 17.65     0.141 A 
HETATM    8  C5  BTN A 300       8.013  -5.831  -9.734  1.00 17.47     0.142 A 
HETATM    9  C6  BTN A 300       6.546  -5.603 -10.083  1.00 17.06     0.084 C 
ENDROOT
BRANCH   3  10
HETATM   10  C7  BTN A 300       8.524  -2.198 -10.722  1.00 18.33     0.013 C 
BRANCH  10  11
HETATM   11  C8  BTN A 300       7.787  -0.886 -10.984  1.00 19.24     0.002 C 
BRANCH  11  12
HETATM   12  C9  BTN A 300       8.111  -0.231 -12.266  1.00 20.09     0.011 C 
BRANCH  12  13
HETATM   13  C10 BTN A 300       9.298  -0.916 -13.027  1.00 20.77     0.098 C 
BRANCH  13  14
HETATM   14  C11 BTN A 300       8.812  -1.692 -14.199  1.00 21.57     0.185 C 
HETATM   15  O11 BTN A 300       7.849  -1.377 -14.912  1.00 21.65    -0.647 OA
HETATM   16  O12 BTN A 300       9.111  -2.975 -14.143  1.00 22.67    -0.647 OA
ENDBRANCH  13  14
ENDBRANCH  12  13
ENDBRANCH  11  12
ENDBRANCH  10  11
ENDBRANCH   3  10
TORSDOF 5
ENDMDL
MODEL 2
REMARK VINA RESULT:    -3.901      3.006      4.308
REMARK INTER + INTRA:          -5.371
REMARK INTER:                  -5.002
REMARK INTRA:                  -0.369
REMARK UNBOUND:                -0.329
REMARK  5 active torsions:
REMARK  status: ('A' for Active; 'I' for Inactive)
REMARK    1  A    between atoms: C2_3  and  C7_10 
REMARK    2  A    between atoms: C7_10  and  C8_11 
REMARK    3  A    between atoms: C8_11  and  C9_12 
REMARK    4  A    between atoms: C9_12  and  C10_13 
REMARK    5  A    between atoms: C10_13  and  C11_14 
ROOT
HETATM    1  N1  BTN A 300       6.046  -6.429  -5.914  1.00 17.73    -0.217 NA
HETATM    2  S1  BTN A 300       8.767  -7.761  -7.264  1.00 16.59    -0.137 SA
HETATM    3  C2  BTN A 300       9.260  -5.996  -7.100  1.00 17.74     0.072 C 
HETATM    4  N2  BTN A 300       6.991  -4.976  -7.243  1.00 17.92    -0.217 NA
HETATM    5  C3  BTN A 300       5.840  -5.630  -6.966  1.00 17.95     0.360 A 
HETATM    6  O3  BTN A 300       4.794  -5.462  -7.628  1.00 17.93    -0.243 OA
HETATM    7  C4  BTN A 300       8.077  -5.352  -6.340  1.00 17.65     0.141 A 
HETATM    8  C5  BTN A 300       7.417  -6.364  -5.410  1.00 17.47     0.142 A 
HETATM    9  C6  BTN A 300       8.154  -7.693  -5.540  1.00 17.06     0.084 C 
ENDROOT
BRANCH   3  10
HETATM   10  C7  BTN A 300       9.602  -5.190  -8.287  1.00 18.33     0.013 C 
BRANCH  10  11
HETATM   11  C8  BTN A 300       9.470  -5.697  -9.721  1.00 19.24     0.002 C 
BRANCH  11  12
HETATM   12  C9  BTN A 300       9.599  -4.664 -10.767  1.00 20.09     0.011 C 
BRANCH  12  13
HETATM   13  C10 BTN A 300       9.552  -3.203 -10.200  1.00 20.77     0.098 C 
BRANCH  13  14
HETATM   14  C11 BTN A 300       8.308  -2.503 -10.617  1.00 21.57     0.185 C 
HETATM   15  O11 BTN A 300       8.216  -1.290 -10.850  1.00 21.65    -0.647 OA
HETATM   16  O12 BTN A 300       7.204  -3.116 -10.234  1.00 22.67    -0.647 OA
ENDBRANCH  13  14
ENDBRANCH  12  13
ENDBRANCH  11  12
ENDBRANCH  10  11
ENDBRANCH   3  10
TORSDOF 5
ENDMDL
MODEL 3
REMARK VINA RESULT:    -3.789      2.665      3.562
REMARK INTER + INTRA:          -5.226
REMARK INTER:                  -5.034
REMARK INTRA:                  -0.192
REMARK UNBOUND:                -0.329
REMARK  5 active torsions:
REMARK  status: ('A' for Active; 'I' for Inactive)
REMARK    1  A    between atoms: C2_3  and  C7_10 
REMARK    2  A    between atoms: C7_10  and  C8_11 
REMARK    3  A    between atoms: C8_11  and  C9_12 
REMARK    4  A    between atoms: C9_12  and  C10_13 
REMARK    5  A    between atoms: C10_13  and  C11_14 
ROOT
HETATM    1  N1  BTN A 300       8.200  -7.536  -5.623  1.00 17.73    -0.217 NA
HETATM    2  S1  BTN A 300       8.997  -7.370  -8.839  1.00 16.59    -0.137 SA
HETATM    3  C2  BTN A 300       9.534  -5.716  -8.238  1.00 17.74     0.072 C 
HETATM    4  N2  BTN A 300       7.936  -5.490  -6.339  1.00 17.92    -0.217 NA
HETATM    5  C3  BTN A 300       7.327  -6.528  -5.725  1.00 17.95     0.360 A 
HETATM    6  O3  BTN A 300       6.139  -6.481  -5.340  1.00 17.93    -0.243 OA
HETATM    7  C4  BTN A 300       9.318  -5.792  -6.708  1.00 17.65     0.141 A 
HETATM    8  C5  BTN A 300       9.503  -7.220  -6.206  1.00 17.47     0.142 A 
HETATM    9  C6  BTN A 300       9.847  -8.110  -7.395  1.00 17.06     0.084 C 
ENDROOT
BRANCH   3  10
HETATM   10  C7  BTN A 300       8.935  -4.480  -8.776  1.00 18.33     0.013 C 
BRANCH  10  11
HETATM   11  C8  BTN A 300       8.784  -4.195 -10.269  1.00 19.24     0.002 C 
BRANCH  11  12
HETATM   12  C9  BTN A 300       9.404  -2.939 -10.733  1.00 20.09     0.011 C 
BRANCH  12  13
HETATM   13  C10 BTN A 300       8.790  -2.406 -12.074  1.00 20.77     0.098 C 
BRANCH  13  14
HETATM   14  C11 BTN A 300       8.262  -1.025 -11.914  1.00 21.57     0.185 C 
HETATM   15  O11 BTN A 300       8.509  -0.075 -12.670  1.00 21.65    -0.647 OA
HETATM   16  O12 BTN A 300       7.946  -0.723 -10.669  1.00 22.67    -0.647 OA
ENDBRANCH  13  14
ENDBRANCH  12  13
ENDBRANCH  11  12
ENDBRANCH  10  11
ENDBRANCH   3  10
TORSDOF 5
ENDMDL
MODEL 4
REMARK VINA RESULT:    -3.750      4.871      7.294
REMARK INTER + INTRA:          -5.175
REMARK INTER:                  -4.805
REMARK INTRA:                  -0.370
REMARK UNBOUND:                -0.329
REMARK  5 active torsions:
REMARK  status: ('A' for Active; 'I' for Inactive)
REMARK    1  A    between atoms: C2_3  and  C7_10 
REMARK    2  A    between atoms: C7_10  and  C8_11 
REMARK    3  A    between atoms: C8_11  and  C9_12 
REMARK    4  A    between atoms: C9_12  and  C10_13 
REMARK    5  A    between atoms: C10_13  and  C11_14 
ROOT
HETATM    1  N1  BTN A 300       4.551   1.929 -15.504  1.00 17.73    -0.217 NA
HETATM    2  S1  BTN A 300       7.305   0.365 -16.491  1.00 16.59    -0.137 SA
HETATM    3  C2  BTN A 300       7.205  -0.139 -14.724  1.00 17.74     0.072 C 
HETATM    4  N2  BTN A 300       5.979   1.849 -13.854  1.00 17.92    -0.217 NA
HETATM    5  C3  BTN A 300       5.217   2.669 -14.611  1.00 17.95     0.360 A 
HETATM    6  O3  BTN A 300       5.189   3.907 -14.445  1.00 17.93    -0.243 OA
HETATM    7  C4  BTN A 300       5.854   0.447 -14.249  1.00 17.65     0.141 A 
HETATM    8  C5  BTN A 300       4.854   0.502 -15.400  1.00 17.47     0.142 A 
HETATM    9  C6  BTN A 300       5.528  -0.048 -16.652  1.00 17.06     0.084 C 
ENDROOT
BRANCH   3  10
HETATM   10  C7  BTN A 300       8.275   0.212 -13.772  1.00 18.33     0.013 C 
BRANCH  10  11
HETATM   11  C8  BTN A 300       8.727  -0.701 -12.634  1.00 19.24     0.002 C 
BRANCH  11  12
HETATM   12  C9  BTN A 300       7.957  -0.572 -11.382  1.00 20.09     0.011 C 
BRANCH  12  13
HETATM   13  C10 BTN A 300       7.093  -1.839 -11.055  1.00 20.77     0.098 C 
BRANCH  13  14
HETATM   14  C11 BTN A 300       7.948  -2.976 -10.621  1.00 21.57     0.185 C 
HETATM   15  O11 BTN A 300       8.935  -2.884  -9.879  1.00 21.65    -0.647 OA
HETATM   16  O12 BTN A 300       7.929  -3.997 -11.456  1.00 22.67    -0.647 OA
ENDBRANCH  13  14
ENDBRANCH  12  13
ENDBRANCH  11  12
ENDBRANCH  10  11
ENDBRANCH   3  10
TORSDOF 5
ENDMDL
MODEL 5
REMARK VINA RESULT:    -3.584      2.172      6.098
REMARK INTER + INTRA:          -4.961
REMARK INTER:                  -4.678
REMARK INTRA:                  -0.283
REMARK UNBOUND:                -0.329
REMARK  5 active torsions:
REMARK  status: ('A' for Active; 'I' for Inactive)
REMARK    1  A    between atoms: C2_3  and  C7_10 
REMARK    2  A    between atoms: C7_10  and  C8_11 
REMARK    3  A    between atoms: C8_11  and  C9_12 
REMARK    4  A    between atoms: C9_12  and  C10_13 
REMARK    5  A    between atoms: C10_13  and  C11_14 
ROOT
HETATM    1  N1  BTN A 300       7.306  -1.333 -12.346  1.00 17.73    -0.217 NA
HETATM    2  S1  BTN A 300       6.438  -4.302 -11.148  1.00 16.59    -0.137 SA
HETATM    3  C2  BTN A 300       7.874  -3.876 -10.080  1.00 17.74     0.072 C 
HETATM    4  N2  BTN A 300       9.089  -2.405 -11.683  1.00 17.92    -0.217 NA
HETATM    5  C3  BTN A 300       8.511  -1.771 -12.727  1.00 17.95     0.360 A 
HETATM    6  O3  BTN A 300       9.072  -1.649 -13.837  1.00 17.93    -0.243 OA
HETATM    7  C4  BTN A 300       8.231  -2.430 -10.500  1.00 17.65     0.141 A 
HETATM    8  C5  BTN A 300       6.987  -1.679 -10.962  1.00 17.47     0.142 A 
HETATM    9  C6  BTN A 300       5.788  -2.616 -10.852  1.00 17.06     0.084 C 
ENDROOT
BRANCH   3  10
HETATM   10  C7  BTN A 300       9.087  -4.716 -10.066  1.00 18.33     0.013 C 
BRANCH  10  11
HETATM   11  C8  BTN A 300       9.518  -5.558  -8.867  1.00 19.24     0.002 C 
BRANCH  11  12
HETATM   12  C9  BTN A 300       9.446  -4.874  -7.561  1.00 20.09     0.011 C 
BRANCH  12  13
HETATM   13  C10 BTN A 300       9.102  -5.840  -6.375  1.00 20.77     0.098 C 
BRANCH  13  14
HETATM   14  C11 BTN A 300       7.641  -5.849  -6.094  1.00 21.57     0.185 C 
HETATM   15  O11 BTN A 300       6.997  -6.830  -5.699  1.00 21.65    -0.647 OA
HETATM   16  O12 BTN A 300       6.970  -4.932  -6.764  1.00 22.67    -0.647 OA
ENDBRANCH  13  14
ENDBRANCH  12  13
ENDBRANCH  11  12
ENDBRANCH  10  11
ENDBRANCH   3  10
TORSDOF 5
ENDMDL
MODEL 6
REMARK VINA RESULT:    -3.556      2.932      6.480
REMARK INTER + INTRA:          -4.925
REMARK INTER:                  -4.670
REMARK INTRA:                  -0.255
REMARK UNBOUND:                -0.329
REMARK  5 active torsions:
REMARK  status: ('A' for Active; 'I' for Inactive)
REMARK    1  A    between atoms: C2_3  and  C7_10 
REMARK    2  A    between atoms: C7_10  and  C8_11 
REMARK    3  A    between atoms: C8_11  and  C9_12 
REMARK    4  A    between atoms: C9_12  and  C10_13 
REMARK    5  A    between atoms: C10_13  and  C11_14 
ROOT
HETATM    1  N1  BTN A 300       7.570  -0.444 -15.056  1.00 17.73    -0.217 NA
HETATM    2  S1  BTN A 300       6.827  -1.848 -12.144  1.00 16.59    -0.137 SA
HETATM    3  C2  BTN A 300       8.628  -2.201 -12.278  1.00 17.74     0.072 C 
HETATM    4  N2  BTN A 300       8.805  -2.221 -14.764  1.00 17.92    -0.217 NA
HETATM    5  C3  BTN A 300       7.932  -1.612 -15.597  1.00 17.95     0.360 A 
HETATM    6  O3  BTN A 300       7.570  -2.118 -16.681  1.00 17.93    -0.243 OA
HETATM    7  C4  BTN A 300       9.059  -1.440 -13.555  1.00 17.65     0.141 A 
HETATM    8  C5  BTN A 300       8.199  -0.198 -13.760  1.00 17.47     0.142 A 
HETATM    9  C6  BTN A 300       7.187  -0.117 -12.621  1.00 17.06     0.084 C 
ENDROOT
BRANCH   3  10
HETATM   10  C7  BTN A 300       9.130  -3.588 -12.318  1.00 18.33     0.013 C 
BRANCH  10  11
HETATM   11  C8  BTN A 300       9.698  -4.316 -11.102  1.00 19.24     0.002 C 
BRANCH  11  12
HETATM   12  C9  BTN A 300       9.330  -3.737  -9.796  1.00 20.09     0.011 C 
BRANCH  12  13
HETATM   13  C10 BTN A 300       8.435  -4.690  -8.929  1.00 20.77     0.098 C 
BRANCH  13  14
HETATM   14  C11 BTN A 300       9.210  -5.282  -7.805  1.00 21.57     0.185 C 
HETATM   15  O11 BTN A 300       9.478  -4.705  -6.742  1.00 21.65    -0.647 OA
HETATM   16  O12 BTN A 300      10.032  -6.242  -8.181  1.00 22.67    -0.647 OA
ENDBRANCH  13  14
ENDBRANCH  12  13
ENDBRANCH  11  12
ENDBRANCH  10  11
ENDBRANCH   3  10
TORSDOF 5
ENDMDL
MODEL 7
REMARK VINA RESULT:    -3.540      2.555      5.748
REMARK INTER + INTRA:          -4.904
REMARK INTER:                  -4.372
REMARK INTRA:                  -0.532
REMARK UNBOUND:                -0.329
REMARK  5 active torsions:
REMARK  status: ('A' for Active; 'I' for Inactive)
REMARK    1  A    between atoms: C2_3  and  C7_10 
REMARK    2  A    between atoms: C7_10  and  C8_11 
REMARK    3  A    between atoms: C8_11  and  C9_12 
REMARK    4  A    between atoms: C9_12  and  C10_13 
REMARK    5  A    between atoms: C10_13  and  C11_14 
ROOT
HETATM    1  N1  BTN A 300       7.567  -2.723 -12.433  1.00 17.73    -0.217 NA
HETATM    2  S1  BTN A 300       9.631  -5.171 -11.567  1.00 16.59    -0.137 SA
HETATM    3  C2  BTN A 300       8.717  -4.883  -9.997  1.00 17.74     0.072 C 
HETATM    4  N2  BTN A 300       8.157  -2.480 -10.344  1.00 17.92    -0.217 NA
HETATM    5  C3  BTN A 300       8.106  -1.874 -11.551  1.00 17.95     0.360 A 
HETATM    6  O3  BTN A 300       8.513  -0.707 -11.737  1.00 17.93    -0.243 OA
HETATM    7  C4  BTN A 300       7.636  -3.845 -10.383  1.00 17.65     0.141 A 
HETATM    8  C5  BTN A 300       7.222  -4.014 -11.841  1.00 17.47     0.142 A 
HETATM    9  C6  BTN A 300       8.021  -5.167 -12.440  1.00 17.06     0.084 C 
ENDROOT
BRANCH   3  10
HETATM   10  C7  BTN A 300       9.423  -4.452  -8.775  1.00 18.33     0.013 C 
BRANCH  10  11
HETATM   11  C8  BTN A 300       9.568  -5.325  -7.530  1.00 19.24     0.002 C 
BRANCH  11  12
HETATM   12  C9  BTN A 300       8.752  -4.910  -6.374  1.00 20.09     0.011 C 
BRANCH  12  13
HETATM   13  C10 BTN A 300       7.604  -5.922  -6.033  1.00 20.77     0.098 C 
BRANCH  13  14
HETATM   14  C11 BTN A 300       6.529  -5.885  -7.060  1.00 21.57     0.185 C 
HETATM   15  O11 BTN A 300       6.383  -6.712  -7.970  1.00 21.65    -0.647 OA
HETATM   16  O12 BTN A 300       6.052  -4.675  -7.280  1.00 22.67    -0.647 OA
ENDBRANCH  13  14
ENDBRANCH  12  13
ENDBRANCH  11  12
ENDBRANCH  10  11
ENDBRANCH   3  10
TORSDOF 5
ENDMDL
MODEL 8
REMARK VINA RESULT:    -3.506      2.719      6.210
REMARK INTER + INTRA:          -4.860
REMARK INTER:                  -4.567
REMARK INTRA:                  -0.292
REMARK UNBOUND:                -0.329
REMARK  5 active torsions:
REMARK  status: ('A' for Active; 'I' for Inactive)
REMARK    1  A    between atoms: C2_3  and  C7_10 
REMARK    2  A    between atoms: C7_10  and  C8_11 
REMARK    3  A    between atoms: C8_11  and  C9_12 
REMARK    4  A    between atoms: C9_12  and  C10_13 
REMARK    5  A    between atoms: C10_13  and  C11_14 
ROOT
HETATM    1  N1  BTN A 300       7.401  -2.861 -14.421  1.00 17.73    -0.217 NA
HETATM    2  S1  BTN A 300       7.969  -0.770 -11.909  1.00 16.59    -0.137 SA
HETATM    3  C2  BTN A 300       8.856  -2.279 -11.343  1.00 17.74     0.072 C 
HETATM    4  N2  BTN A 300       7.479  -3.974 -12.543  1.00 17.92    -0.217 NA
HETATM    5  C3  BTN A 300       6.731  -3.715 -13.639  1.00 17.95     0.360 A 
HETATM    6  O3  BTN A 300       5.607  -4.228 -13.825  1.00 17.93    -0.243 OA
HETATM    7  C4  BTN A 300       8.746  -3.245 -12.547  1.00 17.65     0.141 A 
HETATM    8  C5  BTN A 300       8.693  -2.470 -13.859  1.00 17.47     0.142 A 
HETATM    9  C6  BTN A 300       8.769  -0.980 -13.543  1.00 17.06     0.084 C 
ENDROOT
BRANCH   3  10
HETATM   10  C7  BTN A 300       8.465  -2.969 -10.099  1.00 18.33     0.013 C 
BRANCH  10  11
HETATM   11  C8  BTN A 300       9.432  -3.786  -9.246  1.00 19.24     0.002 C 
BRANCH  11  12
HETATM   12  C9  BTN A 300       8.888  -5.053  -8.719  1.00 20.09     0.011 C 
BRANCH  12  13
HETATM   13  C10 BTN A 300       9.219  -5.284  -7.204  1.00 20.77     0.098 C 
BRANCH  13  14
HETATM   14  C11 BTN A 300       7.978  -5.378  -6.389  1.00 21.57     0.185 C 
HETATM   15  O11 BTN A 300       7.823  -6.120  -5.410  1.00 21.65    -0.647 OA
HETATM   16  O12 BTN A 300       6.889  -5.032  -7.047  1.00 22.67    -0.647 OA
ENDBRANCH  13  14
ENDBRANCH  12  13
ENDBRANCH  11  12
ENDBRANCH  10  11
ENDBRANCH   3  10
TORSDOF 5
ENDMDL
MODEL 9
REMARK VINA RESULT:    -3.381      3.218      5.298
REMARK INTER + INTRA:          -4.698
REMARK INTER:                  -4.040
REMARK INTRA:                  -0.659
REMARK UNBOUND:                -0.329
REMARK  5 active torsions:
REMARK  status: ('A' for Active; 'I' for Inactive)
REMARK    1  A    between atoms: C2_3  and  C7_10 
REMARK    2  A    between atoms: C7_10  and  C8_11 
REMARK    3  A    between atoms: C8_11  and  C9_12 
REMARK    4  A    between atoms: C9_12  and  C10_13 
REMARK    5  A    between atoms: C10_13  and  C11_14 
ROOT
HETATM    1  N1  BTN A 300       7.958  -3.169 -15.762  1.00 17.73    -0.217 NA
HETATM    2  S1  BTN A 300       5.869  -2.045 -13.444  1.00 16.59    -0.137 SA
HETATM    3  C2  BTN A 300       7.102  -0.683 -13.524  1.00 17.74     0.072 C 
HETATM    4  N2  BTN A 300       9.067  -2.021 -14.271  1.00 17.92    -0.217 NA
HETATM    5  C3  BTN A 300       8.984  -3.212 -14.905  1.00 17.95     0.360 A 
HETATM    6  O3  BTN A 300       9.773  -4.154 -14.676  1.00 17.93    -0.243 OA
HETATM    7  C4  BTN A 300       8.025  -1.088 -14.698  1.00 17.65     0.141 A 
HETATM    8  C5  BTN A 300       7.253  -1.889 -15.741  1.00 17.47     0.142 A 
HETATM    9  C6  BTN A 300       5.807  -2.023 -15.274  1.00 17.06     0.084 C 
ENDROOT
BRANCH   3  10
HETATM   10  C7  BTN A 300       7.909  -0.317 -12.345  1.00 18.33     0.013 C 
BRANCH  10  11
HETATM   11  C8  BTN A 300       7.651  -0.863 -10.942  1.00 19.24     0.002 C 
BRANCH  11  12
HETATM   12  C9  BTN A 300       8.539  -1.965 -10.525  1.00 20.09     0.011 C 
BRANCH  12  13
HETATM   13  C10 BTN A 300       7.804  -3.347 -10.429  1.00 20.77     0.098 C 
BRANCH  13  14
HETATM   14  C11 BTN A 300       8.321  -4.304 -11.444  1.00 21.57     0.185 C 
HETATM   15  O11 BTN A 300       7.641  -5.155 -12.033  1.00 21.65    -0.647 OA
HETATM   16  O12 BTN A 300       9.609  -4.560 -11.318  1.00 22.67    -0.647 OA
ENDBRANCH  13  14
ENDBRANCH  12  13
ENDBRANCH  11  12
ENDBRANCH  10  11
ENDBRANCH   3  10
TORSDOF 5
ENDMDL
