MODEL 1
REMARK VINA RESULT:    -4.150      0.000      0.000
REMARK INTER + INTRA:          -5.528
REMARK INTER:                  -5.363
REMARK INTRA:                  -0.164
REMARK UNBOUND:                -0.164
REMARK  5 active torsions:
REMARK  status: ('A' for Active; 'I' for Inactive)
REMARK    1  A    between atoms: C2_3  and  C7_10 
REMARK    2  A    between atoms: C7_10  and  C8_11 
REMARK    3  A    between atoms: C8_11  and  C9_12 
REMARK    4  A    between atoms: C9_12  and  C10_13 
REMARK    5  A    between atoms: C10_13  and  C11_14 
ROOT
HETATM    1  N1  BTN A 300      12.932   9.833  11.172  1.00 17.73    -0.217 NA
HETATM    2  S1  BTN A 300      10.302   9.559   9.169  1.00 16.59    -0.137 SA
HETATM    3  C2  BTN A 300      11.695   9.371   7.982  1.00 17.74     0.072 C 
HETATM    4  N2  BTN A 300      13.404  10.694   9.221  1.00 17.92    -0.217 NA
HETATM    5  C3  BTN A 300      13.368  10.934  10.551  1.00 17.95     0.360 A 
HETATM    6  O3  BTN A 300      13.704  12.031  11.047  1.00 17.93    -0.243 OA
HETATM    7  C4  BTN A 300      12.950   9.346   8.885  1.00 17.65     0.141 A 
HETATM    8  C5  BTN A 300      12.623   8.744  10.248  1.00 17.47     0.142 A 
HETATM    9  C6  BTN A 300      11.147   8.359  10.265  1.00 17.06     0.084 C 
ENDROOT
BRANCH   3  10
HETATM   10  C7  BTN A 300      11.884  10.327   6.874  1.00 18.33     0.013 C 
BRANCH  10  11
HETATM   11  C8  BTN A 300      11.092  10.276   5.569  1.00 19.24     0.002 C 
BRANCH  11  12
HETATM   12  C9  BTN A 300      11.857  10.630   4.358  1.00 20.09     0.011 C 
BRANCH  12  13
HETATM   13  C10 BTN A 300      11.461  12.025   3.763  1.00 20.77     0.098 C 
BRANCH  13  14
HETATM   14  C11 BTN A 300      11.953  12.176   2.367  1.00 21.57     0.185 C 
HETATM   15  O11 BTN A 300      12.129  11.246   1.569  1.00 21.65    -0.647 OA
HETATM   16  O12 BTN A 300      12.678  13.262   2.179  1.00 22.67    -0.647 OA
ENDBRANCH  13  14
ENDBRANCH  12  13
ENDBRANCH  11  12
ENDBRANCH  10  11
ENDBRANCH   3  10
TORSDOF 5
ENDMDL
MODEL 2
REMARK VINA RESULT:    -4.091      1.645      2.018
REMARK INTER + INTRA:          -5.451
REMARK INTER:                  -5.210
REMARK INTRA:                  -0.241
REMARK UNBOUND:                -0.164
REMARK  5 active torsions:
REMARK  status: ('A' for Active; 'I' for Inactive)
REMARK    1  A    between atoms: C2_3  and  C7_10 
REMARK    2  A    between atoms: C7_10  and  C8_11 
REMARK    3  A    between atoms: C8_11  and  C9_12 
REMARK    4  A    between atoms: C9_12  and  C10_13 
REMARK    5  A    between atoms: C10_13  and  C11_14 
ROOT
HETATM    1  N1  BTN A 300      12.281   9.109  10.581  1.00 17.73    -0.217 NA
HETATM    2  S1  BTN A 300       9.875   9.738   8.387  1.00 16.59    -0.137 SA
HETATM    3  C2  BTN A 300      11.271   9.272   7.283  1.00 17.74     0.072 C 
HETATM    4  N2  BTN A 300      13.148   9.966   8.769  1.00 17.92    -0.217 NA
HETATM    5  C3  BTN A 300      13.052  10.096  10.111  1.00 17.95     0.360 A 
HETATM    6  O3  BTN A 300      13.621  11.013  10.741  1.00 17.93    -0.243 OA
HETATM    7  C4  BTN A 300      12.383   8.828   8.262  1.00 17.65     0.141 A 
HETATM    8  C5  BTN A 300      11.780   8.228   9.528  1.00 17.47     0.142 A 
HETATM    9  C6  BTN A 300      10.261   8.265   9.405  1.00 17.06     0.084 C 
ENDROOT
BRANCH   3  10
HETATM   10  C7  BTN A 300      11.812  10.228   6.298  1.00 18.33     0.013 C 
BRANCH  10  11
HETATM   11  C8  BTN A 300      11.394  10.256   4.830  1.00 19.24     0.002 C 
BRANCH  11  12
HETATM   12  C9  BTN A 300      10.142   9.539   4.521  1.00 20.09     0.011 C 
BRANCH  12  13
HETATM   13  C10 BTN A 300       9.472  10.014   3.185  1.00 20.77     0.098 C 
BRANCH  13  14
HETATM   14  C11 BTN A 300      10.298   9.642   2.005  1.00 21.57     0.185 C 
HETATM   15  O11 BTN A 300      10.989  10.427   1.342  1.00 21.65    -0.647 OA
HETATM   16  O12 BTN A 300       9.871   8.560   1.383  1.00 22.67    -0.647 OA
ENDBRANCH  13  14
ENDBRANCH  12  13
ENDBRANCH  11  12
ENDBRANCH  10  11
ENDBRANCH   3  10
TORSDOF 5
ENDMDL
MODEL 3
REMARK VINA RESULT:    -3.871      4.603      7.276
REMARK INTER + INTRA:          -5.167
REMARK INTER:                  -4.842
REMARK INTRA:                  -0.325
REMARK UNBOUND:                -0.164
REMARK  5 active torsions:
REMARK  status: ('A' for Active; 'I' for Inactive)
REMARK    1  A    between atoms: C2_3  and  C7_10 
REMARK    2  A    between atoms: C7_10  and  C8_11 
REMARK    3  A    between atoms: C8_11  and  C9_12 
REMARK    4  A    between atoms: C9_12  and  C10_13 
REMARK    5  A    between atoms: C10_13  and  C11_14 
ROOT
HETATM    1  N1  BTN A 300       9.140  10.860   1.774  1.00 17.73    -0.217 NA
HETATM    2  S1  BTN A 300      11.874  12.218   3.072  1.00 16.59    -0.137 SA
HETATM    3  C2  BTN A 300      11.639  10.749   4.155  1.00 17.74     0.072 C 
HETATM    4  N2  BTN A 300       9.167  10.532   3.933  1.00 17.92    -0.217 NA
HETATM    5  C3  BTN A 300       8.445  11.030   2.904  1.00 17.95     0.360 A 
HETATM    6  O3  BTN A 300       7.318  11.547   3.059  1.00 17.93    -0.243 OA
HETATM    7  C4  BTN A 300      10.456   9.995   3.503  1.00 17.65     0.141 A 
HETATM    8  C5  BTN A 300      10.437  10.221   1.994  1.00 17.47     0.142 A 
HETATM    9  C6  BTN A 300      11.608  11.126   1.626  1.00 17.06     0.084 C 
ENDROOT
BRANCH   3  10
HETATM   10  C7  BTN A 300      11.409  10.901   5.604  1.00 18.33     0.013 C 
BRANCH  10  11
HETATM   11  C8  BTN A 300      11.829   9.861   6.640  1.00 19.24     0.002 C 
BRANCH  11  12
HETATM   12  C9  BTN A 300      10.717   9.183   7.334  1.00 20.09     0.011 C 
BRANCH  12  13
HETATM   13  C10 BTN A 300      11.125   7.800   7.950  1.00 20.77     0.098 C 
BRANCH  13  14
HETATM   14  C11 BTN A 300      10.207   6.718   7.503  1.00 21.57     0.185 C 
HETATM   15  O11 BTN A 300      10.217   5.554   7.926  1.00 21.65    -0.647 OA
HETATM   16  O12 BTN A 300       9.730   6.901   6.287  1.00 22.67    -0.647 OA
ENDBRANCH  13  14
ENDBRANCH  12  13
ENDBRANCH  11  12
ENDBRANCH  10  11
ENDBRANCH   3  10
TORSDOF 5
ENDMDL
MODEL 4
REMARK VINA RESULT:    -3.842      2.732      3.577
REMARK INTER + INTRA:          -5.130
REMARK INTER:                  -4.747
REMARK INTRA:                  -0.383
REMARK UNBOUND:                -0.164
REMARK  5 active torsions:
REMARK  status: ('A' for Active; 'I' for Inactive)
REMARK    1  A    between atoms: C2_3  and  C7_10 
REMARK    2  A    between atoms: C7_10  and  C8_11 
REMARK    3  A    between atoms: C8_11  and  C9_12 
REMARK    4  A    between atoms: C9_12  and  C10_13 
REMARK    5  A    between atoms: C10_13  and  C11_14 
ROOT
HETATM    1  N1  BTN A 300      10.876   9.676   8.850  1.00 17.73    -0.217 NA
HETATM    2  S1  BTN A 300      10.787  12.204   6.704  1.00 16.59    -0.137 SA
HETATM    3  C2  BTN A 300      10.784  10.754   5.571  1.00 17.74     0.072 C 
HETATM    4  N2  BTN A 300      11.985   9.144   7.045  1.00 17.92    -0.217 NA
HETATM    5  C3  BTN A 300      12.057   9.247   8.390  1.00 17.95     0.360 A 
HETATM    6  O3  BTN A 300      13.092   8.968   9.034  1.00 17.93    -0.243 OA
HETATM    7  C4  BTN A 300      10.678   9.540   6.524  1.00 17.65     0.141 A 
HETATM    8  C5  BTN A 300       9.903   9.909   7.784  1.00 17.47     0.142 A 
HETATM    9  C6  BTN A 300       9.482  11.371   7.682  1.00 17.06     0.084 C 
ENDROOT
BRANCH   3  10
HETATM   10  C7  BTN A 300      11.875  10.546   4.600  1.00 18.33     0.013 C 
BRANCH  10  11
HETATM   11  C8  BTN A 300      11.893  11.163   3.203  1.00 19.24     0.002 C 
BRANCH  11  12
HETATM   12  C9  BTN A 300      10.586  11.203   2.518  1.00 20.09     0.011 C 
BRANCH  12  13
HETATM   13  C10 BTN A 300      10.446  10.121   1.392  1.00 20.77     0.098 C 
BRANCH  13  14
HETATM   14  C11 BTN A 300       9.373   9.143   1.714  1.00 21.57     0.185 C 
HETATM   15  O11 BTN A 300       8.181   9.264   1.400  1.00 21.65    -0.647 OA
HETATM   16  O12 BTN A 300       9.631   8.409   2.779  1.00 22.67    -0.647 OA
ENDBRANCH  13  14
ENDBRANCH  12  13
ENDBRANCH  11  12
ENDBRANCH  10  11
ENDBRANCH   3  10
TORSDOF 5
ENDMDL
MODEL 5
REMARK VINA RESULT:    -3.801      2.683      6.472
REMARK INTER + INTRA:          -5.076
REMARK INTER:                  -4.809
REMARK INTRA:                  -0.267
REMARK UNBOUND:                -0.164
REMARK  5 active torsions:
REMARK  status: ('A' for Active; 'I' for Inactive)
REMARK    1  A    between atoms: C2_3  and  C7_10 
REMARK    2  A    between atoms: C7_10  and  C8_11 
REMARK    3  A    between atoms: C8_11  and  C9_12 
REMARK    4  A    between atoms: C9_12  and  C10_13 
REMARK    5  A    between atoms: C10_13  and  C11_14 
ROOT
HETATM    1  N1  BTN A 300       9.980  11.832   3.632  1.00 17.73    -0.217 NA
HETATM    2  S1  BTN A 300       8.912   9.922   6.125  1.00 16.59    -0.137 SA
HETATM    3  C2  BTN A 300      10.646  10.264   6.636  1.00 17.74     0.072 C 
HETATM    4  N2  BTN A 300      11.627  10.601   4.370  1.00 17.92    -0.217 NA
HETATM    5  C3  BTN A 300      10.916  10.946   3.273  1.00 17.95     0.360 A 
HETATM    6  O3  BTN A 300      11.153  10.475   2.140  1.00 17.93    -0.243 OA
HETATM    7  C4  BTN A 300      11.151  11.274   5.577  1.00 17.65     0.141 A 
HETATM    8  C5  BTN A 300      10.002  12.135   5.062  1.00 17.47     0.142 A 
HETATM    9  C6  BTN A 300       8.722  11.710   5.773  1.00 17.06     0.084 C 
ENDROOT
BRANCH   3  10
HETATM   10  C7  BTN A 300      11.620   9.168   6.799  1.00 18.33     0.013 C 
BRANCH  10  11
HETATM   11  C8  BTN A 300      11.856   8.437   8.119  1.00 19.24     0.002 C 
BRANCH  11  12
HETATM   12  C9  BTN A 300      13.032   8.890   8.886  1.00 20.09     0.011 C 
BRANCH  12  13
HETATM   13  C10 BTN A 300      12.654   9.605  10.230  1.00 20.77     0.098 C 
BRANCH  13  14
HETATM   14  C11 BTN A 300      13.343  10.916  10.356  1.00 21.57     0.185 C 
HETATM   15  O11 BTN A 300      13.791  11.580   9.411  1.00 21.65    -0.647 OA
HETATM   16  O12 BTN A 300      13.913  11.101  11.530  1.00 22.67    -0.647 OA
ENDBRANCH  13  14
ENDBRANCH  12  13
ENDBRANCH  11  12
ENDBRANCH  10  11
ENDBRANCH   3  10
TORSDOF 5
ENDMDL
MODEL 6
REMARK VINA RESULT:    -3.770      3.984      6.808
REMARK INTER + INTRA:          -5.036
REMARK INTER:                  -4.859
REMARK INTRA:                  -0.177
REMARK UNBOUND:                -0.164
REMARK  5 active torsions:
REMARK  status: ('A' for Active; 'I' for Inactive)
REMARK    1  A    between atoms: C2_3  and  C7_10 
REMARK    2  A    between atoms: C7_10  and  C8_11 
REMARK    3  A    between atoms: C8_11  and  C9_12 
REMARK    4  A    between atoms: C9_12  and  C10_13 
REMARK    5  A    between atoms: C10_13  and  C11_14 
ROOT
HETATM    1  N1  BTN A 300      10.740   8.323   6.987  1.00 17.73    -0.217 NA
HETATM    2  S1  BTN A 300      11.059  11.143   8.704  1.00 16.59    -0.137 SA
HETATM    3  C2  BTN A 300      12.663  10.312   9.054  1.00 17.74     0.072 C 
HETATM    4  N2  BTN A 300      11.907   7.952   8.796  1.00 17.92    -0.217 NA
HETATM    5  C3  BTN A 300      10.819   7.570   8.091  1.00 17.95     0.360 A 
HETATM    6  O3  BTN A 300      10.057   6.654   8.468  1.00 17.93    -0.243 OA
HETATM    7  C4  BTN A 300      12.629   9.051   8.158  1.00 17.65     0.141 A 
HETATM    8  C5  BTN A 300      11.816   9.309   6.894  1.00 17.47     0.142 A 
HETATM    9  C6  BTN A 300      11.302  10.744   6.933  1.00 17.06     0.084 C 
ENDROOT
BRANCH   3  10
HETATM   10  C7  BTN A 300      13.046   9.947  10.431  1.00 18.33     0.013 C 
BRANCH  10  11
HETATM   11  C8  BTN A 300      13.186  10.960  11.566  1.00 19.24     0.002 C 
BRANCH  11  12
HETATM   12  C9  BTN A 300      14.306  11.910  11.424  1.00 20.09     0.011 C 
BRANCH  12  13
HETATM   13  C10 BTN A 300      15.183  12.029  12.719  1.00 20.77     0.098 C 
BRANCH  13  14
HETATM   14  C11 BTN A 300      15.928  13.315  12.749  1.00 21.57     0.185 C 
HETATM   15  O11 BTN A 300      15.463  14.400  13.124  1.00 21.65    -0.647 OA
HETATM   16  O12 BTN A 300      16.926  13.366  11.888  1.00 22.67    -0.647 OA
ENDBRANCH  13  14
ENDBRANCH  12  13
ENDBRANCH  11  12
ENDBRANCH  10  11
ENDBRANCH   3  10
TORSDOF 5
ENDMDL
MODEL 7
REMARK VINA RESULT:    -3.730      4.194      7.738
REMARK INTER + INTRA:          -4.984
REMARK INTER:                  -4.792
REMARK INTRA:                  -0.192
REMARK UNBOUND:                -0.164
REMARK  5 active torsions:
REMARK  status: ('A' for Active; 'I' for Inactive)
REMARK    1  A    between atoms: C2_3  and  C7_10 
REMARK    2  A    between atoms: C7_10  and  C8_11 
REMARK    3  A    between atoms: C8_11  and  C9_12 
REMARK    4  A    between atoms: C9_12  and  C10_13 
REMARK    5  A    between atoms: C10_13  and  C11_14 
ROOT
HETATM    1  N1  BTN A 300       9.432  12.482   1.047  1.00 17.73    -0.217 NA
HETATM    2  S1  BTN A 300      10.775  13.306   3.966  1.00 16.59    -0.137 SA
HETATM    3  C2  BTN A 300      11.830  11.887   3.460  1.00 17.74     0.072 C 
HETATM    4  N2  BTN A 300      10.162  10.685   2.052  1.00 17.92    -0.217 NA
HETATM    5  C3  BTN A 300       9.083  11.266   1.482  1.00 17.95     0.360 A 
HETATM    6  O3  BTN A 300       7.972  10.698   1.408  1.00 17.93    -0.243 OA
HETATM    7  C4  BTN A 300      11.339  11.552   2.032  1.00 17.65     0.141 A 
HETATM    8  C5  BTN A 300      10.830  12.806   1.328  1.00 17.47     0.142 A 
HETATM    9  C6  BTN A 300      10.980  13.988   2.279  1.00 17.06     0.084 C 
ENDROOT
BRANCH   3  10
HETATM   10  C7  BTN A 300      11.896  10.660   4.277  1.00 18.33     0.013 C 
BRANCH  10  11
HETATM   11  C8  BTN A 300      11.054  10.432   5.530  1.00 19.24     0.002 C 
BRANCH  11  12
HETATM   12  C9  BTN A 300      11.809  10.000   6.722  1.00 20.09     0.011 C 
BRANCH  12  13
HETATM   13  C10 BTN A 300      11.379   8.586   7.246  1.00 20.77     0.098 C 
BRANCH  13  14
HETATM   14  C11 BTN A 300      11.978   8.299   8.577  1.00 21.57     0.185 C 
HETATM   15  O11 BTN A 300      11.345   7.962   9.586  1.00 21.65    -0.647 OA
HETATM   16  O12 BTN A 300      13.131   8.908   8.778  1.00 22.67    -0.647 OA
ENDBRANCH  13  14
ENDBRANCH  12  13
ENDBRANCH  11  12
ENDBRANCH  10  11
ENDBRANCH   3  10
TORSDOF 5
ENDMDL
MODEL 8
REMARK VINA RESULT:    -3.639     14.235     15.357
REMARK INTER + INTRA:          -4.867
REMARK INTER:                  -4.657
REMARK INTRA:                  -0.210
REMARK UNBOUND:                -0.164
REMARK  5 active torsions:
REMARK  status: ('A' for Active; 'I' for Inactive)
REMARK    1  A    between atoms: C2_3  and  C7_10 
REMARK    2  A    between atoms: C7_10  and  C8_11 
REMARK    3  A    between atoms: C8_11  and  C9_12 
REMARK    4  A    between atoms: C9_12  and  C10_13 
REMARK    5  A    between atoms: C10_13  and  C11_14 
ROOT
HETATM    1  N1  BTN A 300       9.227  -7.050   3.459  1.00 17.73    -0.217 NA
HETATM    2  S1  BTN A 300       8.625  -5.656   6.408  1.00 16.59    -0.137 SA
HETATM    3  C2  BTN A 300       8.552  -4.199   5.287  1.00 17.74     0.072 C 
HETATM    4  N2  BTN A 300      10.080  -5.040   3.508  1.00 17.92    -0.217 NA
HETATM    5  C3  BTN A 300      10.351  -6.346   3.287  1.00 17.95     0.360 A 
HETATM    6  O3  BTN A 300      11.490  -6.755   2.975  1.00 17.93    -0.243 OA
HETATM    7  C4  BTN A 300       8.683  -4.814   3.873  1.00 17.65     0.141 A 
HETATM    8  C5  BTN A 300       8.087  -6.217   3.837  1.00 17.47     0.142 A 
HETATM    9  C6  BTN A 300       7.550  -6.550   5.225  1.00 17.06     0.084 C 
ENDROOT
BRANCH   3  10
HETATM   10  C7  BTN A 300       9.493  -3.073   5.442  1.00 18.33     0.013 C 
BRANCH  10  11
HETATM   11  C8  BTN A 300       9.187  -1.647   4.989  1.00 19.24     0.002 C 
BRANCH  11  12
HETATM   12  C9  BTN A 300       8.138  -0.956   5.763  1.00 20.09     0.011 C 
BRANCH  12  13
HETATM   13  C10 BTN A 300       8.708  -0.088   6.938  1.00 20.77     0.098 C 
BRANCH  13  14
HETATM   14  C11 BTN A 300       8.359   1.347   6.767  1.00 21.57     0.185 C 
HETATM   15  O11 BTN A 300       8.815   2.277   7.446  1.00 21.65    -0.647 OA
HETATM   16  O12 BTN A 300       7.175   1.540   6.220  1.00 22.67    -0.647 OA
ENDBRANCH  13  14
ENDBRANCH  12  13
ENDBRANCH  11  12
ENDBRANCH  10  11
ENDBRANCH   3  10
TORSDOF 5
ENDMDL
MODEL 9
REMARK VINA RESULT:    -3.636      1.921      2.814
REMARK INTER + INTRA:          -4.862
REMARK INTER:                  -4.572
REMARK INTRA:                  -0.291
REMARK UNBOUND:                -0.164
REMARK  5 active torsions:
REMARK  status: ('A' for Active; 'I' for Inactive)
REMARK    1  A    between atoms: C2_3  and  C7_10 
REMARK    2  A    between atoms: C7_10  and  C8_11 
REMARK    3  A    between atoms: C8_11  and  C9_12 
REMARK    4  A    between atoms: C9_12  and  C10_13 
REMARK    5  A    between atoms: C10_13  and  C11_14 
ROOT
HETATM    1  N1  BTN A 300      12.532  12.799  11.226  1.00 17.73    -0.217 NA
HETATM    2  S1  BTN A 300      10.869   9.995  10.616  1.00 16.59    -0.137 SA
HETATM    3  C2  BTN A 300      12.604   9.476  10.292  1.00 17.74     0.072 C 
HETATM    4  N2  BTN A 300      13.523  11.693   9.625  1.00 17.92    -0.217 NA
HETATM    5  C3  BTN A 300      12.978  12.881   9.968  1.00 17.95     0.360 A 
HETATM    6  O3  BTN A 300      12.934  13.854   9.185  1.00 17.93    -0.243 OA
HETATM    7  C4  BTN A 300      13.442  10.709  10.703  1.00 17.65     0.141 A 
HETATM    8  C5  BTN A 300      12.752  11.483  11.822  1.00 17.47     0.142 A 
HETATM    9  C6  BTN A 300      11.449  10.770  12.170  1.00 17.06     0.084 C 
ENDROOT
BRANCH   3  10
HETATM   10  C7  BTN A 300      13.019   8.999   8.959  1.00 18.33     0.013 C 
BRANCH  10  11
HETATM   11  C8  BTN A 300      12.037   8.647   7.844  1.00 19.24     0.002 C 
BRANCH  11  12
HETATM   12  C9  BTN A 300      11.605   9.783   7.007  1.00 20.09     0.011 C 
BRANCH  12  13
HETATM   13  C10 BTN A 300      10.707   9.351   5.796  1.00 20.77     0.098 C 
BRANCH  13  14
HETATM   14  C11 BTN A 300      11.084  10.082   4.557  1.00 21.57     0.185 C 
HETATM   15  O11 BTN A 300      12.162  10.664   4.373  1.00 21.65    -0.647 OA
HETATM   16  O12 BTN A 300      10.049  10.524   3.870  1.00 22.67    -0.647 OA
ENDBRANCH  13  14
ENDBRANCH  12  13
ENDBRANCH  11  12
ENDBRANCH  10  11
ENDBRANCH   3  10
TORSDOF 5
ENDMDL
