MODEL 1
REMARK VINA RESULT:    -4.118      0.000      0.000
REMARK INTER + INTRA:          -5.502
REMARK INTER:                  -5.322
REMARK INTRA:                  -0.180
REMARK UNBOUND:                -0.180
REMARK  5 active torsions:
REMARK  status: ('A' for Active; 'I' for Inactive)
REMARK    1  A    between atoms: C2_3  and  C7_10 
REMARK    2  A    between atoms: C7_10  and  C8_11 
REMARK    3  A    between atoms: C8_11  and  C9_12 
REMARK    4  A    between atoms: C9_12  and  C10_13 
REMARK    5  A    between atoms: C10_13  and  C11_14 
ROOT
HETATM    1  N1  BTN A 300       8.795  -7.482  -6.892  1.00 17.73    -0.217 NA
HETATM    2  S1  BTN A 300       8.049  -6.403  -9.939  1.00 16.59    -0.137 SA
HETATM    3  C2  BTN A 300       9.413  -5.263  -9.465  1.00 17.74     0.072 C 
HETATM    4  N2  BTN A 300       9.085  -5.320  -6.995  1.00 17.92    -0.217 NA
HETATM    5  C3  BTN A 300       8.458  -6.315  -6.330  1.00 17.95     0.360 A 
HETATM    6  O3  BTN A 300       7.704  -6.105  -5.356  1.00 17.93    -0.243 OA
HETATM    7  C4  BTN A 300       9.899  -5.815  -8.104  1.00 17.65     0.141 A 
HETATM    8  C5  BTN A 300       9.699  -7.325  -8.030  1.00 17.47     0.142 A 
HETATM    9  C6  BTN A 300       9.079  -7.795  -9.342  1.00 17.06     0.084 C 
ENDROOT
BRANCH   3  10
HETATM   10  C7  BTN A 300       9.190  -3.808  -9.374  1.00 18.33     0.013 C 
BRANCH  10  11
HETATM   11  C8  BTN A 300       8.163  -3.055 -10.218  1.00 19.24     0.002 C 
BRANCH  11  12
HETATM   12  C9  BTN A 300       8.730  -2.135 -11.222  1.00 20.09     0.011 C 
BRANCH  12  13
HETATM   13  C10 BTN A 300       7.884  -0.828 -11.409  1.00 20.77     0.098 C 
BRANCH  13  14
HETATM   14  C11 BTN A 300       8.335  -0.059 -12.600  1.00 21.57     0.185 C 
HETATM   15  O11 BTN A 300       7.607   0.648 -13.310  1.00 21.65    -0.647 OA
HETATM   16  O12 BTN A 300       9.413  -0.559 -13.172  1.00 22.67    -0.647 OA
ENDBRANCH  13  14
ENDBRANCH  12  13
ENDBRANCH  11  12
ENDBRANCH  10  11
ENDBRANCH   3  10
TORSDOF 5
ENDMDL
MODEL 2
REMARK VINA RESULT:    -4.072      2.683      6.620
REMARK INTER + INTRA:          -5.443
REMARK INTER:                  -5.120
REMARK INTRA:                  -0.322
REMARK UNBOUND:                -0.180
REMARK  5 active torsions:
REMARK  status: ('A' for Active; 'I' for Inactive)
REMARK    1  A    between atoms: C2_3  and  C7_10 
REMARK    2  A    between atoms: C7_10  and  C8_11 
REMARK    3  A    between atoms: C8_11  and  C9_12 
REMARK    4  A    between atoms: C9_12  and  C10_13 
REMARK    5  A    between atoms: C10_13  and  C11_14 
ROOT
HETATM    1  N1  BTN A 300       7.271  -1.444 -12.625  1.00 17.73    -0.217 NA
HETATM    2  S1  BTN A 300       6.712  -4.265 -10.972  1.00 16.59    -0.137 SA
HETATM    3  C2  BTN A 300       7.996  -3.468  -9.922  1.00 17.74     0.072 C 
HETATM    4  N2  BTN A 300       9.125  -2.127 -11.693  1.00 17.92    -0.217 NA
HETATM    5  C3  BTN A 300       8.549  -1.763 -12.860  1.00 17.95     0.360 A 
HETATM    6  O3  BTN A 300       9.171  -1.749 -13.944  1.00 17.93    -0.243 OA
HETATM    7  C4  BTN A 300       8.191  -2.076 -10.570  1.00 17.65     0.141 A 
HETATM    8  C5  BTN A 300       6.897  -1.597 -11.220  1.00 17.47     0.142 A 
HETATM    9  C6  BTN A 300       5.827  -2.662 -11.009  1.00 17.06     0.084 C 
ENDROOT
BRANCH   3  10
HETATM   10  C7  BTN A 300       9.303  -4.113  -9.699  1.00 18.33     0.013 C 
BRANCH  10  11
HETATM   11  C8  BTN A 300       9.495  -5.625  -9.605  1.00 19.24     0.002 C 
BRANCH  11  12
HETATM   12  C9  BTN A 300       9.618  -6.158  -8.235  1.00 20.09     0.011 C 
BRANCH  12  13
HETATM   13  C10 BTN A 300       9.387  -5.073  -7.127  1.00 20.77     0.098 C 
BRANCH  13  14
HETATM   14  C11 BTN A 300       8.142  -5.343  -6.359  1.00 21.57     0.185 C 
HETATM   15  O11 BTN A 300       8.035  -6.166  -5.440  1.00 21.65    -0.647 OA
HETATM   16  O12 BTN A 300       7.040  -5.053  -7.024  1.00 22.67    -0.647 OA
ENDBRANCH  13  14
ENDBRANCH  12  13
ENDBRANCH  11  12
ENDBRANCH  10  11
ENDBRANCH   3  10
TORSDOF 5
ENDMDL
MODEL 3
REMARK VINA RESULT:    -4.018      1.849      2.448
REMARK INTER + INTRA:          -5.372
REMARK INTER:                  -5.049
REMARK INTRA:                  -0.323
REMARK UNBOUND:                -0.180
REMARK  5 active torsions:
REMARK  status: ('A' for Active; 'I' for Inactive)
REMARK    1  A    between atoms: C2_3  and  C7_10 
REMARK    2  A    between atoms: C7_10  and  C8_11 
REMARK    3  A    between atoms: C8_11  and  C9_12 
REMARK    4  A    between atoms: C9_12  and  C10_13 
REMARK    5  A    between atoms: C10_13  and  C11_14 
ROOT
HETATM    1  N1  BTN A 300       8.479  -5.957  -8.271  1.00 17.73    -0.217 NA
HETATM    2  S1  BTN A 300       6.329  -3.976  -9.838  1.00 16.59    -0.137 SA
HETATM    3  C2  BTN A 300       7.908  -3.552 -10.681  1.00 17.74     0.072 C 
HETATM    4  N2  BTN A 300       9.467  -4.087  -8.813  1.00 17.92    -0.217 NA
HETATM    5  C3  BTN A 300       9.177  -4.922  -7.791  1.00 17.95     0.360 A 
HETATM    6  O3  BTN A 300       9.538  -4.700  -6.615  1.00 17.93    -0.243 OA
HETATM    7  C4  BTN A 300       8.925  -4.555 -10.087  1.00 17.65     0.141 A 
HETATM    8  C5  BTN A 300       8.237  -5.862  -9.709  1.00 17.47     0.142 A 
HETATM    9  C6  BTN A 300       6.755  -5.745 -10.050  1.00 17.06     0.084 C 
ENDROOT
BRANCH   3  10
HETATM   10  C7  BTN A 300       8.453  -2.182 -10.629  1.00 18.33     0.013 C 
BRANCH  10  11
HETATM   11  C8  BTN A 300       7.645  -0.936 -10.984  1.00 19.24     0.002 C 
BRANCH  11  12
HETATM   12  C9  BTN A 300       8.192  -0.128 -12.090  1.00 20.09     0.011 C 
BRANCH  12  13
HETATM   13  C10 BTN A 300       9.268  -0.890 -12.939  1.00 20.77     0.098 C 
BRANCH  13  14
HETATM   14  C11 BTN A 300       8.654  -1.544 -14.125  1.00 21.57     0.185 C 
HETATM   15  O11 BTN A 300       7.481  -1.398 -14.493  1.00 21.65    -0.647 OA
HETATM   16  O12 BTN A 300       9.245  -2.672 -14.469  1.00 22.67    -0.647 OA
ENDBRANCH  13  14
ENDBRANCH  12  13
ENDBRANCH  11  12
ENDBRANCH  10  11
ENDBRANCH   3  10
TORSDOF 5
ENDMDL
MODEL 4
REMARK VINA RESULT:    -3.960      1.732      2.055
REMARK INTER + INTRA:          -5.297
REMARK INTER:                  -5.000
REMARK INTRA:                  -0.297
REMARK UNBOUND:                -0.180
REMARK  5 active torsions:
REMARK  status: ('A' for Active; 'I' for Inactive)
REMARK    1  A    between atoms: C2_3  and  C7_10 
REMARK    2  A    between atoms: C7_10  and  C8_11 
REMARK    3  A    between atoms: C8_11  and  C9_12 
REMARK    4  A    between atoms: C9_12  and  C10_13 
REMARK    5  A    between atoms: C10_13  and  C11_14 
ROOT
HETATM    1  N1  BTN A 300       8.236  -7.358  -5.468  1.00 17.73    -0.217 NA
HETATM    2  S1  BTN A 300       9.027  -7.615  -8.679  1.00 16.59    -0.137 SA
HETATM    3  C2  BTN A 300       9.394  -5.844  -8.347  1.00 17.74     0.072 C 
HETATM    4  N2  BTN A 300       7.774  -5.483  -6.490  1.00 17.92    -0.217 NA
HETATM    5  C3  BTN A 300       7.268  -6.469  -5.715  1.00 17.95     0.360 A 
HETATM    6  O3  BTN A 300       6.079  -6.480  -5.329  1.00 17.93    -0.243 OA
HETATM    7  C4  BTN A 300       9.180  -5.701  -6.822  1.00 17.65     0.141 A 
HETATM    8  C5  BTN A 300       9.504  -7.009  -6.107  1.00 17.47     0.142 A 
HETATM    9  C6  BTN A 300       9.940  -8.034  -7.148  1.00 17.06     0.084 C 
ENDROOT
BRANCH   3  10
HETATM   10  C7  BTN A 300       8.678  -4.772  -9.064  1.00 18.33     0.013 C 
BRANCH  10  11
HETATM   11  C8  BTN A 300       9.329  -3.456  -9.485  1.00 19.24     0.002 C 
BRANCH  11  12
HETATM   12  C9  BTN A 300       9.074  -3.048 -10.880  1.00 20.09     0.011 C 
BRANCH  12  13
HETATM   13  C10 BTN A 300       8.367  -1.654 -10.997  1.00 20.77     0.098 C 
BRANCH  13  14
HETATM   14  C11 BTN A 300       6.911  -1.808 -11.261  1.00 21.57     0.185 C 
HETATM   15  O11 BTN A 300       6.140  -2.523 -10.607  1.00 21.65    -0.647 OA
HETATM   16  O12 BTN A 300       6.575  -1.565 -12.513  1.00 22.67    -0.647 OA
ENDBRANCH  13  14
ENDBRANCH  12  13
ENDBRANCH  11  12
ENDBRANCH  10  11
ENDBRANCH   3  10
TORSDOF 5
ENDMDL
MODEL 5
REMARK VINA RESULT:    -3.746      3.862      7.370
REMARK INTER + INTRA:          -5.021
REMARK INTER:                  -4.777
REMARK INTRA:                  -0.245
REMARK UNBOUND:                -0.180
REMARK  5 active torsions:
REMARK  status: ('A' for Active; 'I' for Inactive)
REMARK    1  A    between atoms: C2_3  and  C7_10 
REMARK    2  A    between atoms: C7_10  and  C8_11 
REMARK    3  A    between atoms: C8_11  and  C9_12 
REMARK    4  A    between atoms: C9_12  and  C10_13 
REMARK    5  A    between atoms: C10_13  and  C11_14 
ROOT
HETATM    1  N1  BTN A 300       7.826  -1.707 -15.452  1.00 17.73    -0.217 NA
HETATM    2  S1  BTN A 300       6.105  -2.216 -12.662  1.00 16.59    -0.137 SA
HETATM    3  C2  BTN A 300       7.455  -1.114 -12.071  1.00 17.74     0.072 C 
HETATM    4  N2  BTN A 300       9.189  -1.741 -13.746  1.00 17.92    -0.217 NA
HETATM    5  C3  BTN A 300       8.924  -2.287 -14.954  1.00 17.95     0.360 A 
HETATM    6  O3  BTN A 300       9.634  -3.183 -15.460  1.00 17.93    -0.243 OA
HETATM    7  C4  BTN A 300       8.209  -0.726 -13.365  1.00 17.65     0.141 A 
HETATM    8  C5  BTN A 300       7.258  -0.701 -14.557  1.00 17.47     0.142 A 
HETATM    9  C6  BTN A 300       5.861  -1.069 -14.069  1.00 17.06     0.084 C 
ENDROOT
BRANCH   3  10
HETATM   10  C7  BTN A 300       8.410  -1.567 -11.041  1.00 18.33     0.013 C 
BRANCH  10  11
HETATM   11  C8  BTN A 300       8.209  -2.823 -10.197  1.00 19.24     0.002 C 
BRANCH  11  12
HETATM   12  C9  BTN A 300       9.416  -3.650 -10.006  1.00 20.09     0.011 C 
BRANCH  12  13
HETATM   13  C10 BTN A 300       9.097  -5.106  -9.520  1.00 20.77     0.098 C 
BRANCH  13  14
HETATM   14  C11 BTN A 300       9.578  -5.329  -8.131  1.00 21.57     0.185 C 
HETATM   15  O11 BTN A 300       9.798  -4.437  -7.300  1.00 21.65    -0.647 OA
HETATM   16  O12 BTN A 300      10.249  -6.454  -7.980  1.00 22.67    -0.647 OA
ENDBRANCH  13  14
ENDBRANCH  12  13
ENDBRANCH  11  12
ENDBRANCH  10  11
ENDBRANCH   3  10
TORSDOF 5
ENDMDL
MODEL 6
REMARK VINA RESULT:    -3.624      1.913      2.250
REMARK INTER + INTRA:          -4.864
REMARK INTER:                  -4.652
REMARK INTRA:                  -0.212
REMARK UNBOUND:                -0.180
REMARK  5 active torsions:
REMARK  status: ('A' for Active; 'I' for Inactive)
REMARK    1  A    between atoms: C2_3  and  C7_10 
REMARK    2  A    between atoms: C7_10  and  C8_11 
REMARK    3  A    between atoms: C8_11  and  C9_12 
REMARK    4  A    between atoms: C9_12  and  C10_13 
REMARK    5  A    between atoms: C10_13  and  C11_14 
ROOT
HETATM    1  N1  BTN A 300       6.746  -6.990  -6.231  1.00 17.73    -0.217 NA
HETATM    2  S1  BTN A 300       9.456  -6.632  -8.110  1.00 16.59    -0.137 SA
HETATM    3  C2  BTN A 300       8.566  -5.055  -8.437  1.00 17.74     0.072 C 
HETATM    4  N2  BTN A 300       6.244  -5.864  -8.034  1.00 17.92    -0.217 NA
HETATM    5  C3  BTN A 300       5.931  -6.949  -7.291  1.00 17.95     0.360 A 
HETATM    6  O3  BTN A 300       5.014  -7.739  -7.604  1.00 17.93    -0.243 OA
HETATM    7  C4  BTN A 300       7.359  -5.105  -7.471  1.00 17.65     0.141 A 
HETATM    8  C5  BTN A 300       7.708  -5.890  -6.211  1.00 17.47     0.142 A 
HETATM    9  C6  BTN A 300       9.151  -6.369  -6.323  1.00 17.06     0.084 C 
ENDROOT
BRANCH   3  10
HETATM   10  C7  BTN A 300       8.115  -4.705  -9.797  1.00 18.33     0.013 C 
BRANCH  10  11
HETATM   11  C8  BTN A 300       7.601  -3.320 -10.187  1.00 19.24     0.002 C 
BRANCH  11  12
HETATM   12  C9  BTN A 300       8.647  -2.319 -10.469  1.00 20.09     0.011 C 
BRANCH  12  13
HETATM   13  C10 BTN A 300       8.119  -1.086 -11.280  1.00 20.77     0.098 C 
BRANCH  13  14
HETATM   14  C11 BTN A 300       8.823  -0.956 -12.583  1.00 21.57     0.185 C 
HETATM   15  O11 BTN A 300       8.912   0.088 -13.245  1.00 21.65    -0.647 OA
HETATM   16  O12 BTN A 300       8.904  -2.089 -13.253  1.00 22.67    -0.647 OA
ENDBRANCH  13  14
ENDBRANCH  12  13
ENDBRANCH  11  12
ENDBRANCH  10  11
ENDBRANCH   3  10
TORSDOF 5
ENDMDL
MODEL 7
REMARK VINA RESULT:    -3.583     13.326     14.142
REMARK INTER + INTRA:          -4.811
REMARK INTER:                  -4.359
REMARK INTRA:                  -0.452
REMARK UNBOUND:                -0.180
REMARK  5 active torsions:
REMARK  status: ('A' for Active; 'I' for Inactive)
REMARK    1  A    between atoms: C2_3  and  C7_10 
REMARK    2  A    between atoms: C7_10  and  C8_11 
REMARK    3  A    between atoms: C8_11  and  C9_12 
REMARK    4  A    between atoms: C9_12  and  C10_13 
REMARK    5  A    between atoms: C10_13  and  C11_14 
ROOT
HETATM    1  N1  BTN A 300      19.666 -10.246  -5.547  1.00 17.73    -0.217 NA
HETATM    2  S1  BTN A 300      20.331  -8.748  -8.432  1.00 16.59    -0.137 SA
HETATM    3  C2  BTN A 300      22.010  -8.902  -7.698  1.00 17.74     0.072 C 
HETATM    4  N2  BTN A 300      21.355  -8.884  -5.294  1.00 17.92    -0.217 NA
HETATM    5  C3  BTN A 300      20.127  -9.212  -4.834  1.00 17.95     0.360 A 
HETATM    6  O3  BTN A 300      19.576  -8.605  -3.891  1.00 17.93    -0.243 OA
HETATM    7  C4  BTN A 300      21.777  -9.727  -6.410  1.00 17.65     0.141 A 
HETATM    8  C5  BTN A 300      20.599 -10.680  -6.586  1.00 17.47     0.142 A 
HETATM    9  C6  BTN A 300      20.038 -10.501  -7.992  1.00 17.06     0.084 C 
ENDROOT
BRANCH   3  10
HETATM   10  C7  BTN A 300      22.821  -7.707  -7.396  1.00 18.33     0.013 C 
BRANCH  10  11
HETATM   11  C8  BTN A 300      24.267  -7.529  -7.855  1.00 19.24     0.002 C 
BRANCH  11  12
HETATM   12  C9  BTN A 300      24.548  -6.268  -8.567  1.00 20.09     0.011 C 
BRANCH  12  13
HETATM   13  C10 BTN A 300      23.344  -5.769  -9.439  1.00 20.77     0.098 C 
BRANCH  13  14
HETATM   14  C11 BTN A 300      23.309  -6.460 -10.756  1.00 21.57     0.185 C 
HETATM   15  O11 BTN A 300      22.508  -7.349 -11.074  1.00 21.65    -0.647 OA
HETATM   16  O12 BTN A 300      24.470  -6.460 -11.382  1.00 22.67    -0.647 OA
ENDBRANCH  13  14
ENDBRANCH  12  13
ENDBRANCH  11  12
ENDBRANCH  10  11
ENDBRANCH   3  10
TORSDOF 5
ENDMDL
MODEL 8
REMARK VINA RESULT:    -3.539      2.474      2.844
REMARK INTER + INTRA:          -4.753
REMARK INTER:                  -4.495
REMARK INTRA:                  -0.259
REMARK UNBOUND:                -0.180
REMARK  5 active torsions:
REMARK  status: ('A' for Active; 'I' for Inactive)
REMARK    1  A    between atoms: C2_3  and  C7_10 
REMARK    2  A    between atoms: C7_10  and  C8_11 
REMARK    3  A    between atoms: C8_11  and  C9_12 
REMARK    4  A    between atoms: C9_12  and  C10_13 
REMARK    5  A    between atoms: C10_13  and  C11_14 
ROOT
HETATM    1  N1  BTN A 300       7.061  -6.448  -9.634  1.00 17.73    -0.217 NA
HETATM    2  S1  BTN A 300       9.476  -4.963 -11.357  1.00 16.59    -0.137 SA
HETATM    3  C2  BTN A 300       9.182  -3.749 -10.006  1.00 17.74     0.072 C 
HETATM    4  N2  BTN A 300       6.790  -4.282  -9.559  1.00 17.92    -0.217 NA
HETATM    5  C3  BTN A 300       6.197  -5.456  -9.873  1.00 17.95     0.360 A 
HETATM    6  O3  BTN A 300       5.027  -5.525 -10.308  1.00 17.93    -0.243 OA
HETATM    7  C4  BTN A 300       8.161  -4.459  -9.086  1.00 17.65     0.141 A 
HETATM    8  C5  BTN A 300       8.351  -5.972  -9.136  1.00 17.47     0.142 A 
HETATM    9  C6  BTN A 300       9.500  -6.284 -10.088  1.00 17.06     0.084 C 
ENDROOT
BRANCH   3  10
HETATM   10  C7  BTN A 300       8.730  -2.376 -10.303  1.00 18.33     0.013 C 
BRANCH  10  11
HETATM   11  C8  BTN A 300       8.772  -1.756 -11.698  1.00 19.24     0.002 C 
BRANCH  11  12
HETATM   12  C9  BTN A 300       7.970  -0.528 -11.863  1.00 20.09     0.011 C 
BRANCH  12  13
HETATM   13  C10 BTN A 300       8.284   0.241 -13.193  1.00 20.77     0.098 C 
BRANCH  13  14
HETATM   14  C11 BTN A 300       7.051   0.458 -13.995  1.00 21.57     0.185 C 
HETATM   15  O11 BTN A 300       6.307   1.444 -13.906  1.00 21.65    -0.647 OA
HETATM   16  O12 BTN A 300       6.501  -0.659 -14.429  1.00 22.67    -0.647 OA
ENDBRANCH  13  14
ENDBRANCH  12  13
ENDBRANCH  11  12
ENDBRANCH  10  11
ENDBRANCH   3  10
TORSDOF 5
ENDMDL
MODEL 9
REMARK VINA RESULT:    -3.529     14.696     17.401
REMARK INTER + INTRA:          -4.741
REMARK INTER:                  -4.423
REMARK INTRA:                  -0.318
REMARK UNBOUND:                -0.180
REMARK  5 active torsions:
REMARK  status: ('A' for Active; 'I' for Inactive)
REMARK    1  A    between atoms: C2_3  and  C7_10 
REMARK    2  A    between atoms: C7_10  and  C8_11 
REMARK    3  A    between atoms: C8_11  and  C9_12 
REMARK    4  A    between atoms: C9_12  and  C10_13 
REMARK    5  A    between atoms: C10_13  and  C11_14 
ROOT
HETATM    1  N1  BTN A 300      20.409  -8.762  -4.971  1.00 17.73    -0.217 NA
HETATM    2  S1  BTN A 300      19.072 -10.423  -2.430  1.00 16.59    -0.137 SA
HETATM    3  C2  BTN A 300      20.838 -10.331  -1.926  1.00 17.74     0.072 C 
HETATM    4  N2  BTN A 300      21.854 -10.205  -4.197  1.00 17.92    -0.217 NA
HETATM    5  C3  BTN A 300      21.201  -9.787  -5.304  1.00 17.95     0.360 A 
HETATM    6  O3  BTN A 300      21.363 -10.319  -6.424  1.00 17.93    -0.243 OA
HETATM    7  C4  BTN A 300      21.486  -9.437  -3.009  1.00 17.65     0.141 A 
HETATM    8  C5  BTN A 300      20.479  -8.428  -3.550  1.00 17.47     0.142 A 
HETATM    9  C6  BTN A 300      19.151  -8.638  -2.831  1.00 17.06     0.084 C 
ENDROOT
BRANCH   3  10
HETATM   10  C7  BTN A 300      21.638 -11.555  -1.731  1.00 18.33     0.013 C 
BRANCH  10  11
HETATM   11  C8  BTN A 300      22.085 -12.064  -0.362  1.00 19.24     0.002 C 
BRANCH  11  12
HETATM   12  C9  BTN A 300      22.015 -11.073   0.729  1.00 20.09     0.011 C 
BRANCH  12  13
HETATM   13  C10 BTN A 300      23.298 -11.057   1.631  1.00 20.77     0.098 C 
BRANCH  13  14
HETATM   14  C11 BTN A 300      24.446 -10.427   0.925  1.00 21.57     0.185 C 
HETATM   15  O11 BTN A 300      25.361 -11.042   0.362  1.00 21.65    -0.647 OA
HETATM   16  O12 BTN A 300      24.728  -9.213   1.358  1.00 22.67    -0.647 OA
ENDBRANCH  13  14
ENDBRANCH  12  13
ENDBRANCH  11  12
ENDBRANCH  10  11
ENDBRANCH   3  10
TORSDOF 5
ENDMDL
