MODEL 1
REMARK VINA RESULT:    -3.853      0.000      0.000
REMARK INTER + INTRA:          -5.224
REMARK INTER:                  -4.979
REMARK INTRA:                  -0.245
REMARK UNBOUND:                -0.245
REMARK  5 active torsions:
REMARK  status: ('A' for Active; 'I' for Inactive)
REMARK    1  A    between atoms: C2_3  and  C7_10 
REMARK    2  A    between atoms: C7_10  and  C8_11 
REMARK    3  A    between atoms: C8_11  and  C9_12 
REMARK    4  A    between atoms: C9_12  and  C10_13 
REMARK    5  A    between atoms: C10_13  and  C11_14 
ROOT
HETATM    1  N1  BTN A 300       6.768  14.287 -12.866  1.00 17.73    -0.217 NA
HETATM    2  S1  BTN A 300       8.349  17.199 -12.727  1.00 16.59    -0.137 SA
HETATM    3  C2  BTN A 300       9.730  16.045 -13.108  1.00 17.74     0.072 C 
HETATM    4  N2  BTN A 300       8.779  13.992 -12.065  1.00 17.92    -0.217 NA
HETATM    5  C3  BTN A 300       7.462  13.791 -11.835  1.00 17.95     0.360 A 
HETATM    6  O3  BTN A 300       7.036  13.226 -10.805  1.00 17.93    -0.243 OA
HETATM    7  C4  BTN A 300       9.025  14.686 -13.328  1.00 17.65     0.141 A 
HETATM    8  C5  BTN A 300       7.622  14.889 -13.888  1.00 17.47     0.142 A 
HETATM    9  C6  BTN A 300       7.378  16.386 -14.050  1.00 17.06     0.084 C 
ENDROOT
BRANCH   3  10
HETATM   10  C7  BTN A 300      10.865  15.886 -12.179  1.00 18.33     0.013 C 
BRANCH  10  11
HETATM   11  C8  BTN A 300      11.641  17.058 -11.583  1.00 19.24     0.002 C 
BRANCH  11  12
HETATM   12  C9  BTN A 300      13.110  16.932 -11.638  1.00 20.09     0.011 C 
BRANCH  12  13
HETATM   13  C10 BTN A 300      13.613  15.467 -11.397  1.00 20.77     0.098 C 
BRANCH  13  14
HETATM   14  C11 BTN A 300      14.601  15.413 -10.286  1.00 21.57     0.185 C 
HETATM   15  O11 BTN A 300      15.659  14.770 -10.304  1.00 21.65    -0.647 OA
HETATM   16  O12 BTN A 300      14.074  15.651  -9.101  1.00 22.67    -0.647 OA
ENDBRANCH  13  14
ENDBRANCH  12  13
ENDBRANCH  11  12
ENDBRANCH  10  11
ENDBRANCH   3  10
TORSDOF 5
ENDMDL
MODEL 2
REMARK VINA RESULT:    -3.753      4.061      6.912
REMARK INTER + INTRA:          -5.095
REMARK INTER:                  -4.828
REMARK INTRA:                  -0.267
REMARK UNBOUND:                -0.245
REMARK  5 active torsions:
REMARK  status: ('A' for Active; 'I' for Inactive)
REMARK    1  A    between atoms: C2_3  and  C7_10 
REMARK    2  A    between atoms: C7_10  and  C8_11 
REMARK    3  A    between atoms: C8_11  and  C9_12 
REMARK    4  A    between atoms: C9_12  and  C10_13 
REMARK    5  A    between atoms: C10_13  and  C11_14 
ROOT
HETATM    1  N1  BTN A 300       8.537  14.971 -13.357  1.00 17.73    -0.217 NA
HETATM    2  S1  BTN A 300       5.302  14.354 -12.960  1.00 16.59    -0.137 SA
HETATM    3  C2  BTN A 300       5.891  14.386 -11.217  1.00 17.74     0.072 C 
HETATM    4  N2  BTN A 300       8.246  13.678 -11.622  1.00 17.92    -0.217 NA
HETATM    5  C3  BTN A 300       8.890  13.806 -12.803  1.00 17.95     0.360 A 
HETATM    6  O3  BTN A 300       9.675  12.938 -13.240  1.00 17.93    -0.243 OA
HETATM    7  C4  BTN A 300       7.373  14.815 -11.335  1.00 17.65     0.141 A 
HETATM    8  C5  BTN A 300       7.578  15.719 -12.546  1.00 17.47     0.142 A 
HETATM    9  C6  BTN A 300       6.236  15.904 -13.245  1.00 17.06     0.084 C 
ENDROOT
BRANCH   3  10
HETATM   10  C7  BTN A 300       5.773  13.196 -10.353  1.00 18.33     0.013 C 
BRANCH  10  11
HETATM   11  C8  BTN A 300       4.513  12.338 -10.264  1.00 19.24     0.002 C 
BRANCH  11  12
HETATM   12  C9  BTN A 300       4.066  12.021  -8.894  1.00 20.09     0.011 C 
BRANCH  12  13
HETATM   13  C10 BTN A 300       4.219  13.225  -7.900  1.00 20.77     0.098 C 
BRANCH  13  14
HETATM   14  C11 BTN A 300       4.643  12.761  -6.552  1.00 21.57     0.185 C 
HETATM   15  O11 BTN A 300       5.612  13.200  -5.919  1.00 21.65    -0.647 OA
HETATM   16  O12 BTN A 300       4.270  11.525  -6.279  1.00 22.67    -0.647 OA
ENDBRANCH  13  14
ENDBRANCH  12  13
ENDBRANCH  11  12
ENDBRANCH  10  11
ENDBRANCH   3  10
TORSDOF 5
ENDMDL
MODEL 3
REMARK VINA RESULT:    -3.727     14.457     14.965
REMARK INTER + INTRA:          -5.062
REMARK INTER:                  -4.849
REMARK INTRA:                  -0.213
REMARK UNBOUND:                -0.245
REMARK  5 active torsions:
REMARK  status: ('A' for Active; 'I' for Inactive)
REMARK    1  A    between atoms: C2_3  and  C7_10 
REMARK    2  A    between atoms: C7_10  and  C8_11 
REMARK    3  A    between atoms: C8_11  and  C9_12 
REMARK    4  A    between atoms: C9_12  and  C10_13 
REMARK    5  A    between atoms: C10_13  and  C11_14 
ROOT
HETATM    1  N1  BTN A 300      10.479   9.923   3.240  1.00 17.73    -0.217 NA
HETATM    2  S1  BTN A 300       9.670  12.789   1.779  1.00 16.59    -0.137 SA
HETATM    3  C2  BTN A 300      11.417  12.580   1.243  1.00 17.74     0.072 C 
HETATM    4  N2  BTN A 300      12.226  11.232   3.177  1.00 17.92    -0.217 NA
HETATM    5  C3  BTN A 300      11.428  10.500   3.985  1.00 17.95     0.360 A 
HETATM    6  O3  BTN A 300      11.610  10.420   5.219  1.00 17.93    -0.243 OA
HETATM    7  C4  BTN A 300      11.803  11.180   1.779  1.00 17.65     0.141 A 
HETATM    8  C5  BTN A 300      10.584  10.264   1.822  1.00 17.47     0.142 A 
HETATM    9  C6  BTN A 300       9.376  11.043   1.314  1.00 17.06     0.084 C 
ENDROOT
BRANCH   3  10
HETATM   10  C7  BTN A 300      12.449  13.567   1.611  1.00 18.33     0.013 C 
BRANCH  10  11
HETATM   11  C8  BTN A 300      12.187  15.069   1.702  1.00 19.24     0.002 C 
BRANCH  11  12
HETATM   12  C9  BTN A 300      13.221  15.844   2.415  1.00 20.09     0.011 C 
BRANCH  12  13
HETATM   13  C10 BTN A 300      14.680  15.492   1.961  1.00 20.77     0.098 C 
BRANCH  13  14
HETATM   14  C11 BTN A 300      15.623  16.599   2.271  1.00 21.57     0.185 C 
HETATM   15  O11 BTN A 300      16.616  16.505   3.006  1.00 21.65    -0.647 OA
HETATM   16  O12 BTN A 300      15.085  17.797   2.155  1.00 22.67    -0.647 OA
ENDBRANCH  13  14
ENDBRANCH  12  13
ENDBRANCH  11  12
ENDBRANCH  10  11
ENDBRANCH   3  10
TORSDOF 5
ENDMDL
MODEL 4
REMARK VINA RESULT:    -3.726      3.975      7.805
REMARK INTER + INTRA:          -5.061
REMARK INTER:                  -4.757
REMARK INTRA:                  -0.303
REMARK UNBOUND:                -0.245
REMARK  5 active torsions:
REMARK  status: ('A' for Active; 'I' for Inactive)
REMARK    1  A    between atoms: C2_3  and  C7_10 
REMARK    2  A    between atoms: C7_10  and  C8_11 
REMARK    3  A    between atoms: C8_11  and  C9_12 
REMARK    4  A    between atoms: C9_12  and  C10_13 
REMARK    5  A    between atoms: C10_13  and  C11_14 
ROOT
HETATM    1  N1  BTN A 300       8.875  15.140 -13.116  1.00 17.73    -0.217 NA
HETATM    2  S1  BTN A 300       5.614  15.001 -13.705  1.00 16.59    -0.137 SA
HETATM    3  C2  BTN A 300       5.692  14.519 -11.931  1.00 17.74     0.072 C 
HETATM    4  N2  BTN A 300       7.983  13.541 -11.926  1.00 17.92    -0.217 NA
HETATM    5  C3  BTN A 300       8.942  13.835 -12.833  1.00 17.95     0.360 A 
HETATM    6  O3  BTN A 300       9.728  12.975 -13.286  1.00 17.93    -0.243 OA
HETATM    7  C4  BTN A 300       7.182  14.708 -11.562  1.00 17.65     0.141 A 
HETATM    8  C5  BTN A 300       7.807  15.826 -12.391  1.00 17.47     0.142 A 
HETATM    9  C6  BTN A 300       6.738  16.394 -13.318  1.00 17.06     0.084 C 
ENDROOT
BRANCH   3  10
HETATM   10  C7  BTN A 300       5.220  13.196 -11.481  1.00 18.33     0.013 C 
BRANCH  10  11
HETATM   11  C8  BTN A 300       5.037  12.818 -10.013  1.00 19.24     0.002 C 
BRANCH  11  12
HETATM   12  C9  BTN A 300       3.805  12.064  -9.709  1.00 20.09     0.011 C 
BRANCH  12  13
HETATM   13  C10 BTN A 300       2.756  12.897  -8.894  1.00 20.77     0.098 C 
BRANCH  13  14
HETATM   14  C11 BTN A 300       1.585  13.260  -9.736  1.00 21.57     0.185 C 
HETATM   15  O11 BTN A 300       0.620  12.520  -9.972  1.00 21.65    -0.647 OA
HETATM   16  O12 BTN A 300       1.849  14.191 -10.632  1.00 22.67    -0.647 OA
ENDBRANCH  13  14
ENDBRANCH  12  13
ENDBRANCH  11  12
ENDBRANCH  10  11
ENDBRANCH   3  10
TORSDOF 5
ENDMDL
MODEL 5
REMARK VINA RESULT:    -3.683     14.479     16.409
REMARK INTER + INTRA:          -5.005
REMARK INTER:                  -4.757
REMARK INTRA:                  -0.248
REMARK UNBOUND:                -0.245
REMARK  5 active torsions:
REMARK  status: ('A' for Active; 'I' for Inactive)
REMARK    1  A    between atoms: C2_3  and  C7_10 
REMARK    2  A    between atoms: C7_10  and  C8_11 
REMARK    3  A    between atoms: C8_11  and  C9_12 
REMARK    4  A    between atoms: C9_12  and  C10_13 
REMARK    5  A    between atoms: C10_13  and  C11_14 
ROOT
HETATM    1  N1  BTN A 300      11.979  13.334   2.637  1.00 17.73    -0.217 NA
HETATM    2  S1  BTN A 300       9.080  11.741   2.882  1.00 16.59    -0.137 SA
HETATM    3  C2  BTN A 300      10.248  10.346   2.610  1.00 17.74     0.072 C 
HETATM    4  N2  BTN A 300      11.992  11.583   1.331  1.00 17.92    -0.217 NA
HETATM    5  C3  BTN A 300      12.169  12.923   1.379  1.00 17.95     0.360 A 
HETATM    6  O3  BTN A 300      12.463  13.600   0.370  1.00 17.93    -0.243 OA
HETATM    7  C4  BTN A 300      11.640  11.020   2.634  1.00 17.65     0.141 A 
HETATM    8  C5  BTN A 300      11.634  12.242   3.546  1.00 17.47     0.142 A 
HETATM    9  C6  BTN A 300      10.238  12.393   4.142  1.00 17.06     0.084 C 
ENDROOT
BRANCH   3  10
HETATM   10  C7  BTN A 300      10.126   9.471   1.429  1.00 18.33     0.013 C 
BRANCH  10  11
HETATM   11  C8  BTN A 300       9.421   8.116   1.450  1.00 19.24     0.002 C 
BRANCH  11  12
HETATM   12  C9  BTN A 300       8.380   7.967   2.484  1.00 20.09     0.011 C 
BRANCH  12  13
HETATM   13  C10 BTN A 300       6.924   8.107   1.919  1.00 20.77     0.098 C 
BRANCH  13  14
HETATM   14  C11 BTN A 300       6.117   6.889   2.199  1.00 21.57     0.185 C 
HETATM   15  O11 BTN A 300       5.307   6.375   1.417  1.00 21.65    -0.647 OA
HETATM   16  O12 BTN A 300       5.914   6.676   3.485  1.00 22.67    -0.647 OA
ENDBRANCH  13  14
ENDBRANCH  12  13
ENDBRANCH  11  12
ENDBRANCH  10  11
ENDBRANCH   3  10
TORSDOF 5
ENDMDL
MODEL 6
REMARK VINA RESULT:    -3.678      4.593      6.435
REMARK INTER + INTRA:          -4.998
REMARK INTER:                  -4.513
REMARK INTRA:                  -0.485
REMARK UNBOUND:                -0.245
REMARK  5 active torsions:
REMARK  status: ('A' for Active; 'I' for Inactive)
REMARK    1  A    between atoms: C2_3  and  C7_10 
REMARK    2  A    between atoms: C7_10  and  C8_11 
REMARK    3  A    between atoms: C8_11  and  C9_12 
REMARK    4  A    between atoms: C9_12  and  C10_13 
REMARK    5  A    between atoms: C10_13  and  C11_14 
ROOT
HETATM    1  N1  BTN A 300       7.535  15.862 -14.412  1.00 17.73    -0.217 NA
HETATM    2  S1  BTN A 300       8.571  16.405 -11.308  1.00 16.59    -0.137 SA
HETATM    3  C2  BTN A 300       8.591  14.567 -11.391  1.00 17.74     0.072 C 
HETATM    4  N2  BTN A 300       6.812  14.266 -13.109  1.00 17.92    -0.217 NA
HETATM    5  C3  BTN A 300       6.441  15.213 -13.999  1.00 17.95     0.360 A 
HETATM    6  O3  BTN A 300       5.251  15.394 -14.335  1.00 17.93    -0.243 OA
HETATM    7  C4  BTN A 300       8.254  14.260 -12.869  1.00 17.65     0.141 A 
HETATM    8  C5  BTN A 300       8.759  15.373 -13.781  1.00 17.47     0.142 A 
HETATM    9  C6  BTN A 300       9.441  16.431 -12.920  1.00 17.06     0.084 C 
ENDROOT
BRANCH   3  10
HETATM   10  C7  BTN A 300       7.743  13.757 -10.496  1.00 18.33     0.013 C 
BRANCH  10  11
HETATM   11  C8  BTN A 300       6.918  14.344  -9.353  1.00 19.24     0.002 C 
BRANCH  11  12
HETATM   12  C9  BTN A 300       5.565  13.774  -9.200  1.00 20.09     0.011 C 
BRANCH  12  13
HETATM   13  C10 BTN A 300       5.244  12.654 -10.249  1.00 20.77     0.098 C 
BRANCH  13  14
HETATM   14  C11 BTN A 300       3.940  12.902 -10.920  1.00 21.57     0.185 C 
HETATM   15  O11 BTN A 300       3.699  13.847 -11.684  1.00 21.65    -0.647 OA
HETATM   16  O12 BTN A 300       2.910  12.384 -10.278  1.00 22.67    -0.647 OA
ENDBRANCH  13  14
ENDBRANCH  12  13
ENDBRANCH  11  12
ENDBRANCH  10  11
ENDBRANCH   3  10
TORSDOF 5
ENDMDL
MODEL 7
REMARK VINA RESULT:    -3.669      3.692      6.285
REMARK INTER + INTRA:          -4.987
REMARK INTER:                  -4.507
REMARK INTRA:                  -0.481
REMARK UNBOUND:                -0.245
REMARK  5 active torsions:
REMARK  status: ('A' for Active; 'I' for Inactive)
REMARK    1  A    between atoms: C2_3  and  C7_10 
REMARK    2  A    between atoms: C7_10  and  C8_11 
REMARK    3  A    between atoms: C8_11  and  C9_12 
REMARK    4  A    between atoms: C9_12  and  C10_13 
REMARK    5  A    between atoms: C10_13  and  C11_14 
ROOT
HETATM    1  N1  BTN A 300       9.611  14.952 -12.755  1.00 17.73    -0.217 NA
HETATM    2  S1  BTN A 300       6.916  16.164 -14.261  1.00 16.59    -0.137 SA
HETATM    3  C2  BTN A 300       6.184  15.370 -12.771  1.00 17.74     0.072 C 
HETATM    4  N2  BTN A 300       7.917  13.617 -12.411  1.00 17.92    -0.217 NA
HETATM    5  C3  BTN A 300       9.185  13.690 -12.873  1.00 17.95     0.360 A 
HETATM    6  O3  BTN A 300       9.798  12.697 -13.322  1.00 17.93    -0.243 OA
HETATM    7  C4  BTN A 300       7.415  14.912 -11.954  1.00 17.65     0.141 A 
HETATM    8  C5  BTN A 300       8.598  15.844 -12.192  1.00 17.47     0.142 A 
HETATM    9  C6  BTN A 300       8.167  16.934 -13.167  1.00 17.06     0.084 C 
ENDROOT
BRANCH   3  10
HETATM   10  C7  BTN A 300       5.216  14.264 -12.898  1.00 18.33     0.013 C 
BRANCH  10  11
HETATM   11  C8  BTN A 300       4.294  13.814 -11.766  1.00 19.24     0.002 C 
BRANCH  11  12
HETATM   12  C9  BTN A 300       4.592  12.482 -11.207  1.00 20.09     0.011 C 
BRANCH  12  13
HETATM   13  C10 BTN A 300       4.545  12.445  -9.640  1.00 20.77     0.098 C 
BRANCH  13  14
HETATM   14  C11 BTN A 300       5.045  13.719  -9.056  1.00 21.57     0.185 C 
HETATM   15  O11 BTN A 300       6.235  13.985  -8.837  1.00 21.65    -0.647 OA
HETATM   16  O12 BTN A 300       4.153  14.342  -8.310  1.00 22.67    -0.647 OA
ENDBRANCH  13  14
ENDBRANCH  12  13
ENDBRANCH  11  12
ENDBRANCH  10  11
ENDBRANCH   3  10
TORSDOF 5
ENDMDL
MODEL 8
REMARK VINA RESULT:    -3.653     15.418     16.515
REMARK INTER + INTRA:          -4.967
REMARK INTER:                  -4.574
REMARK INTRA:                  -0.393
REMARK UNBOUND:                -0.245
REMARK  5 active torsions:
REMARK  status: ('A' for Active; 'I' for Inactive)
REMARK    1  A    between atoms: C2_3  and  C7_10 
REMARK    2  A    between atoms: C7_10  and  C8_11 
REMARK    3  A    between atoms: C8_11  and  C9_12 
REMARK    4  A    between atoms: C9_12  and  C10_13 
REMARK    5  A    between atoms: C10_13  and  C11_14 
ROOT
HETATM    1  N1  BTN A 300       9.112   7.694   2.921  1.00 17.73    -0.217 NA
HETATM    2  S1  BTN A 300      10.551   8.962   5.627  1.00 16.59    -0.137 SA
HETATM    3  C2  BTN A 300       9.245  10.210   5.283  1.00 17.74     0.072 C 
HETATM    4  N2  BTN A 300       9.070   9.876   2.820  1.00 17.92    -0.217 NA
HETATM    5  C3  BTN A 300       9.448   8.751   2.172  1.00 17.95     0.360 A 
HETATM    6  O3  BTN A 300      10.013   8.771   1.058  1.00 17.93    -0.243 OA
HETATM    7  C4  BTN A 300       8.445   9.594   4.110  1.00 17.65     0.141 A 
HETATM    8  C5  BTN A 300       8.472   8.070   4.180  1.00 17.47     0.142 A 
HETATM    9  C6  BTN A 300       9.287   7.657   5.401  1.00 17.06     0.084 C 
ENDROOT
BRANCH   3  10
HETATM   10  C7  BTN A 300       9.592  11.611   4.980  1.00 18.33     0.013 C 
BRANCH  10  11
HETATM   11  C8  BTN A 300      11.022  12.149   4.991  1.00 19.24     0.002 C 
BRANCH  11  12
HETATM   12  C9  BTN A 300      11.780  11.940   3.742  1.00 20.09     0.011 C 
BRANCH  12  13
HETATM   13  C10 BTN A 300      11.430  12.985   2.627  1.00 20.77     0.098 C 
BRANCH  13  14
HETATM   14  C11 BTN A 300      12.087  12.638   1.338  1.00 21.57     0.185 C 
HETATM   15  O11 BTN A 300      12.149  13.378   0.347  1.00 21.65    -0.647 OA
HETATM   16  O12 BTN A 300      12.149  11.340   1.111  1.00 22.67    -0.647 OA
ENDBRANCH  13  14
ENDBRANCH  12  13
ENDBRANCH  11  12
ENDBRANCH  10  11
ENDBRANCH   3  10
TORSDOF 5
ENDMDL
MODEL 9
REMARK VINA RESULT:    -3.650     15.388     16.580
REMARK INTER + INTRA:          -4.962
REMARK INTER:                  -4.705
REMARK INTRA:                  -0.257
REMARK UNBOUND:                -0.245
REMARK  5 active torsions:
REMARK  status: ('A' for Active; 'I' for Inactive)
REMARK    1  A    between atoms: C2_3  and  C7_10 
REMARK    2  A    between atoms: C7_10  and  C8_11 
REMARK    3  A    between atoms: C8_11  and  C9_12 
REMARK    4  A    between atoms: C9_12  and  C10_13 
REMARK    5  A    between atoms: C10_13  and  C11_14 
ROOT
HETATM    1  N1  BTN A 300       2.359   2.995 -13.817  1.00 17.73    -0.217 NA
HETATM    2  S1  BTN A 300       0.260   1.594 -15.970  1.00 16.59    -0.137 SA
HETATM    3  C2  BTN A 300      -0.260   3.357 -16.038  1.00 17.74     0.072 C 
HETATM    4  N2  BTN A 300       0.434   4.025 -13.741  1.00 17.92    -0.217 NA
HETATM    5  C3  BTN A 300       1.367   3.379 -13.006  1.00 17.95     0.360 A 
HETATM    6  O3  BTN A 300       1.254   3.208 -11.773  1.00 17.93    -0.243 OA
HETATM    7  C4  BTN A 300       0.784   4.085 -15.159  1.00 17.65     0.141 A 
HETATM    8  C5  BTN A 300       2.129   3.368 -15.212  1.00 17.47     0.142 A 
HETATM    9  C6  BTN A 300       1.995   2.157 -16.130  1.00 17.06     0.084 C 
ENDROOT
BRANCH   3  10
HETATM   10  C7  BTN A 300      -1.625   3.763 -15.650  1.00 18.33     0.013 C 
BRANCH  10  11
HETATM   11  C8  BTN A 300      -2.178   5.171 -15.857  1.00 19.24     0.002 C 
BRANCH  11  12
HETATM   12  C9  BTN A 300      -1.861   5.785 -17.161  1.00 20.09     0.011 C 
BRANCH  12  13
HETATM   13  C10 BTN A 300      -2.951   6.803 -17.646  1.00 20.77     0.098 C 
BRANCH  13  14
HETATM   14  C11 BTN A 300      -2.505   8.207 -17.442  1.00 21.57     0.185 C 
HETATM   15  O11 BTN A 300      -3.152   9.214 -17.761  1.00 21.65    -0.647 OA
HETATM   16  O12 BTN A 300      -1.194   8.341 -17.385  1.00 22.67    -0.647 OA
ENDBRANCH  13  14
ENDBRANCH  12  13
ENDBRANCH  11  12
ENDBRANCH  10  11
ENDBRANCH   3  10
TORSDOF 5
ENDMDL
