MODEL 1
REMARK VINA RESULT:    -3.802      0.000      0.000
REMARK INTER + INTRA:          -5.158
REMARK INTER:                  -4.913
REMARK INTRA:                  -0.245
REMARK UNBOUND:                -0.245
REMARK  5 active torsions:
REMARK  status: ('A' for Active; 'I' for Inactive)
REMARK    1  A    between atoms: C2_3  and  C7_10 
REMARK    2  A    between atoms: C7_10  and  C8_11 
REMARK    3  A    between atoms: C8_11  and  C9_12 
REMARK    4  A    between atoms: C9_12  and  C10_13 
REMARK    5  A    between atoms: C10_13  and  C11_14 
ROOT
HETATM    1  N1  BTN A 300       6.512  14.418 -13.054  1.00 17.73    -0.217 NA
HETATM    2  S1  BTN A 300       8.274  17.214 -12.775  1.00 16.59    -0.137 SA
HETATM    3  C2  BTN A 300       9.582  15.992 -13.197  1.00 17.74     0.072 C 
HETATM    4  N2  BTN A 300       8.492  13.960 -12.254  1.00 17.92    -0.217 NA
HETATM    5  C3  BTN A 300       7.163  13.834 -12.041  1.00 17.95     0.360 A 
HETATM    6  O3  BTN A 300       6.692  13.253 -11.041  1.00 17.93    -0.243 OA
HETATM    7  C4  BTN A 300       8.794  14.691 -13.482  1.00 17.65     0.141 A 
HETATM    8  C5  BTN A 300       7.412  15.009 -14.042  1.00 17.47     0.142 A 
HETATM    9  C6  BTN A 300       7.266  16.524 -14.139  1.00 17.06     0.084 C 
ENDROOT
BRANCH   3  10
HETATM   10  C7  BTN A 300      10.696  15.719 -12.269  1.00 18.33     0.013 C 
BRANCH  10  11
HETATM   11  C8  BTN A 300      11.264  16.755 -11.302  1.00 19.24     0.002 C 
BRANCH  11  12
HETATM   12  C9  BTN A 300      12.722  16.964 -11.391  1.00 20.09     0.011 C 
BRANCH  12  13
HETATM   13  C10 BTN A 300      13.525  15.632 -11.591  1.00 20.77     0.098 C 
BRANCH  13  14
HETATM   14  C11 BTN A 300      14.523  15.435 -10.506  1.00 21.57     0.185 C 
HETATM   15  O11 BTN A 300      14.272  15.464  -9.293  1.00 21.65    -0.647 OA
HETATM   16  O12 BTN A 300      15.755  15.741 -10.861  1.00 22.67    -0.647 OA
ENDBRANCH  13  14
ENDBRANCH  12  13
ENDBRANCH  11  12
ENDBRANCH  10  11
ENDBRANCH   3  10
TORSDOF 5
ENDMDL
MODEL 2
REMARK VINA RESULT:    -3.776      4.059      7.407
REMARK INTER + INTRA:          -5.125
REMARK INTER:                  -4.892
REMARK INTRA:                  -0.233
REMARK UNBOUND:                -0.245
REMARK  5 active torsions:
REMARK  status: ('A' for Active; 'I' for Inactive)
REMARK    1  A    between atoms: C2_3  and  C7_10 
REMARK    2  A    between atoms: C7_10  and  C8_11 
REMARK    3  A    between atoms: C8_11  and  C9_12 
REMARK    4  A    between atoms: C9_12  and  C10_13 
REMARK    5  A    between atoms: C10_13  and  C11_14 
ROOT
HETATM    1  N1  BTN A 300       8.604  14.978 -13.346  1.00 17.73    -0.217 NA
HETATM    2  S1  BTN A 300       5.319  14.523 -13.357  1.00 16.59    -0.137 SA
HETATM    3  C2  BTN A 300       5.716  14.319 -11.573  1.00 17.74     0.072 C 
HETATM    4  N2  BTN A 300       8.062  13.516 -11.817  1.00 17.92    -0.217 NA
HETATM    5  C3  BTN A 300       8.836  13.738 -12.902  1.00 17.95     0.360 A 
HETATM    6  O3  BTN A 300       9.620  12.878 -13.359  1.00 17.93    -0.243 OA
HETATM    7  C4  BTN A 300       7.221  14.665 -11.487  1.00 17.65     0.141 A 
HETATM    8  C5  BTN A 300       7.602  15.687 -12.553  1.00 17.47     0.142 A 
HETATM    9  C6  BTN A 300       6.354  16.034 -13.358  1.00 17.06     0.084 C 
ENDROOT
BRANCH   3  10
HETATM   10  C7  BTN A 300       5.445  13.048 -10.874  1.00 18.33     0.013 C 
BRANCH  10  11
HETATM   11  C8  BTN A 300       4.119  12.296 -10.971  1.00 19.24     0.002 C 
BRANCH  11  12
HETATM   12  C9  BTN A 300       3.345  12.226  -9.717  1.00 20.09     0.011 C 
BRANCH  12  13
HETATM   13  C10 BTN A 300       4.223  11.865  -8.468  1.00 20.77     0.098 C 
BRANCH  13  14
HETATM   14  C11 BTN A 300       3.549  12.260  -7.203  1.00 21.57     0.185 C 
HETATM   15  O11 BTN A 300       3.840  11.834  -6.077  1.00 21.65    -0.647 OA
HETATM   16  O12 BTN A 300       2.310  12.678  -7.374  1.00 22.67    -0.647 OA
ENDBRANCH  13  14
ENDBRANCH  12  13
ENDBRANCH  11  12
ENDBRANCH  10  11
ENDBRANCH   3  10
TORSDOF 5
ENDMDL
MODEL 3
REMARK VINA RESULT:    -3.675     13.317     14.397
REMARK INTER + INTRA:          -4.994
REMARK INTER:                  -4.641
REMARK INTRA:                  -0.353
REMARK UNBOUND:                -0.245
REMARK  5 active torsions:
REMARK  status: ('A' for Active; 'I' for Inactive)
REMARK    1  A    between atoms: C2_3  and  C7_10 
REMARK    2  A    between atoms: C7_10  and  C8_11 
REMARK    3  A    between atoms: C8_11  and  C9_12 
REMARK    4  A    between atoms: C9_12  and  C10_13 
REMARK    5  A    between atoms: C10_13  and  C11_14 
ROOT
HETATM    1  N1  BTN A 300       5.768   4.884 -19.323  1.00 17.73    -0.217 NA
HETATM    2  S1  BTN A 300       3.498   5.097 -16.913  1.00 16.59    -0.137 SA
HETATM    3  C2  BTN A 300       5.028   4.748 -15.953  1.00 17.74     0.072 C 
HETATM    4  N2  BTN A 300       6.279   3.502 -17.711  1.00 17.92    -0.217 NA
HETATM    5  C3  BTN A 300       6.040   3.606 -19.037  1.00 17.95     0.360 A 
HETATM    6  O3  BTN A 300       6.088   2.624 -19.810  1.00 17.93    -0.243 OA
HETATM    7  C4  BTN A 300       6.149   4.782 -17.018  1.00 17.65     0.141 A 
HETATM    8  C5  BTN A 300       5.795   5.748 -18.144  1.00 17.47     0.142 A 
HETATM    9  C6  BTN A 300       4.436   6.369 -17.839  1.00 17.06     0.084 C 
ENDROOT
BRANCH   3  10
HETATM   10  C7  BTN A 300       5.147   3.531 -15.128  1.00 18.33     0.013 C 
BRANCH  10  11
HETATM   11  C8  BTN A 300       5.109   3.538 -13.601  1.00 19.24     0.002 C 
BRANCH  11  12
HETATM   12  C9  BTN A 300       3.758   3.533 -13.007  1.00 20.09     0.011 C 
BRANCH  12  13
HETATM   13  C10 BTN A 300       2.707   2.751 -13.869  1.00 20.77     0.098 C 
BRANCH  13  14
HETATM   14  C11 BTN A 300       1.327   3.244 -13.615  1.00 21.57     0.185 C 
HETATM   15  O11 BTN A 300       0.741   4.104 -14.288  1.00 21.65    -0.647 OA
HETATM   16  O12 BTN A 300       0.945   3.115 -12.359  1.00 22.67    -0.647 OA
ENDBRANCH  13  14
ENDBRANCH  12  13
ENDBRANCH  11  12
ENDBRANCH  10  11
ENDBRANCH   3  10
TORSDOF 5
ENDMDL
MODEL 4
REMARK VINA RESULT:    -3.607      1.651      1.893
REMARK INTER + INTRA:          -4.907
REMARK INTER:                  -4.612
REMARK INTRA:                  -0.295
REMARK UNBOUND:                -0.245
REMARK  5 active torsions:
REMARK  status: ('A' for Active; 'I' for Inactive)
REMARK    1  A    between atoms: C2_3  and  C7_10 
REMARK    2  A    between atoms: C7_10  and  C8_11 
REMARK    3  A    between atoms: C8_11  and  C9_12 
REMARK    4  A    between atoms: C9_12  and  C10_13 
REMARK    5  A    between atoms: C10_13  and  C11_14 
ROOT
HETATM    1  N1  BTN A 300       7.796  14.003 -12.581  1.00 17.73    -0.217 NA
HETATM    2  S1  BTN A 300       8.807  16.082 -10.202  1.00 16.59    -0.137 SA
HETATM    3  C2  BTN A 300       9.298  16.992 -11.724  1.00 17.74     0.072 C 
HETATM    4  N2  BTN A 300       9.611  15.031 -13.229  1.00 17.92    -0.217 NA
HETATM    5  C3  BTN A 300       9.040  13.821 -13.036  1.00 17.95     0.360 A 
HETATM    6  O3  BTN A 300       9.638  12.748 -13.269  1.00 17.93    -0.243 OA
HETATM    7  C4  BTN A 300       8.719  16.132 -12.872  1.00 17.65     0.141 A 
HETATM    8  C5  BTN A 300       7.450  15.415 -12.422  1.00 17.47     0.142 A 
HETATM    9  C6  BTN A 300       7.171  15.792 -10.971  1.00 17.06     0.084 C 
ENDROOT
BRANCH   3  10
HETATM   10  C7  BTN A 300      10.712  17.314 -11.994  1.00 18.33     0.013 C 
BRANCH  10  11
HETATM   11  C8  BTN A 300      11.853  16.985 -11.033  1.00 19.24     0.002 C 
BRANCH  11  12
HETATM   12  C9  BTN A 300      13.175  16.812 -11.665  1.00 20.09     0.011 C 
BRANCH  12  13
HETATM   13  C10 BTN A 300      13.799  15.395 -11.414  1.00 20.77     0.098 C 
BRANCH  13  14
HETATM   14  C11 BTN A 300      14.682  15.400 -10.217  1.00 21.57     0.185 C 
HETATM   15  O11 BTN A 300      14.590  14.619  -9.260  1.00 21.65    -0.647 OA
HETATM   16  O12 BTN A 300      15.230  16.574  -9.971  1.00 22.67    -0.647 OA
ENDBRANCH  13  14
ENDBRANCH  12  13
ENDBRANCH  11  12
ENDBRANCH  10  11
ENDBRANCH   3  10
TORSDOF 5
ENDMDL
MODEL 5
REMARK VINA RESULT:    -3.601      3.965      7.787
REMARK INTER + INTRA:          -4.899
REMARK INTER:                  -4.519
REMARK INTRA:                  -0.380
REMARK UNBOUND:                -0.245
REMARK  5 active torsions:
REMARK  status: ('A' for Active; 'I' for Inactive)
REMARK    1  A    between atoms: C2_3  and  C7_10 
REMARK    2  A    between atoms: C7_10  and  C8_11 
REMARK    3  A    between atoms: C8_11  and  C9_12 
REMARK    4  A    between atoms: C9_12  and  C10_13 
REMARK    5  A    between atoms: C10_13  and  C11_14 
ROOT
HETATM    1  N1  BTN A 300       8.568  15.179 -12.887  1.00 17.73    -0.217 NA
HETATM    2  S1  BTN A 300       5.302  14.610 -12.992  1.00 16.59    -0.137 SA
HETATM    3  C2  BTN A 300       5.679  14.280 -11.222  1.00 17.74     0.072 C 
HETATM    4  N2  BTN A 300       8.057  13.583 -11.487  1.00 17.92    -0.217 NA
HETATM    5  C3  BTN A 300       8.839  13.917 -12.537  1.00 17.95     0.360 A 
HETATM    6  O3  BTN A 300       9.660  13.124 -13.046  1.00 17.93    -0.243 OA
HETATM    7  C4  BTN A 300       7.169  14.672 -11.083  1.00 17.65     0.141 A 
HETATM    8  C5  BTN A 300       7.528  15.788 -12.059  1.00 17.47     0.142 A 
HETATM    9  C6  BTN A 300       6.280  16.152 -12.856  1.00 17.06     0.084 C 
ENDROOT
BRANCH   3  10
HETATM   10  C7  BTN A 300       5.445  12.949 -10.630  1.00 18.33     0.013 C 
BRANCH  10  11
HETATM   11  C8  BTN A 300       5.160  12.722  -9.147  1.00 19.24     0.002 C 
BRANCH  11  12
HETATM   12  C9  BTN A 300       3.811  12.209  -8.839  1.00 20.09     0.011 C 
BRANCH  12  13
HETATM   13  C10 BTN A 300       2.883  12.117 -10.100  1.00 20.77     0.098 C 
BRANCH  13  14
HETATM   14  C11 BTN A 300       1.710  13.022  -9.972  1.00 21.57     0.185 C 
HETATM   15  O11 BTN A 300       0.551  12.658  -9.728  1.00 21.65    -0.647 OA
HETATM   16  O12 BTN A 300       1.846  14.157 -10.629  1.00 22.67    -0.647 OA
ENDBRANCH  13  14
ENDBRANCH  12  13
ENDBRANCH  11  12
ENDBRANCH  10  11
ENDBRANCH   3  10
TORSDOF 5
ENDMDL
MODEL 6
REMARK VINA RESULT:    -3.600      4.451      6.302
REMARK INTER + INTRA:          -4.897
REMARK INTER:                  -4.271
REMARK INTRA:                  -0.627
REMARK UNBOUND:                -0.245
REMARK  5 active torsions:
REMARK  status: ('A' for Active; 'I' for Inactive)
REMARK    1  A    between atoms: C2_3  and  C7_10 
REMARK    2  A    between atoms: C7_10  and  C8_11 
REMARK    3  A    between atoms: C8_11  and  C9_12 
REMARK    4  A    between atoms: C9_12  and  C10_13 
REMARK    5  A    between atoms: C10_13  and  C11_14 
ROOT
HETATM    1  N1  BTN A 300       8.024  17.221 -14.454  1.00 17.73    -0.217 NA
HETATM    2  S1  BTN A 300       8.567  16.478 -11.267  1.00 16.59    -0.137 SA
HETATM    3  C2  BTN A 300       9.037  14.907 -12.099  1.00 17.74     0.072 C 
HETATM    4  N2  BTN A 300       7.574  15.112 -14.105  1.00 17.92    -0.217 NA
HETATM    5  C3  BTN A 300       7.081  16.280 -14.576  1.00 17.95     0.360 A 
HETATM    6  O3  BTN A 300       5.925  16.387 -15.037  1.00 17.93    -0.243 OA
HETATM    7  C4  BTN A 300       8.941  15.244 -13.606  1.00 17.65     0.141 A 
HETATM    8  C5  BTN A 300       9.257  16.716 -13.852  1.00 17.47     0.142 A 
HETATM    9  C6  BTN A 300       9.569  17.373 -12.512  1.00 17.06     0.084 C 
ENDROOT
BRANCH   3  10
HETATM   10  C7  BTN A 300       8.320  13.650 -11.812  1.00 18.33     0.013 C 
BRANCH  10  11
HETATM   11  C8  BTN A 300       7.219  13.527 -10.760  1.00 19.24     0.002 C 
BRANCH  11  12
HETATM   12  C9  BTN A 300       5.852  13.387 -11.297  1.00 20.09     0.011 C 
BRANCH  12  13
HETATM   13  C10 BTN A 300       5.068  14.744 -11.350  1.00 20.77     0.098 C 
BRANCH  13  14
HETATM   14  C11 BTN A 300       4.156  14.794 -12.524  1.00 21.57     0.185 C 
HETATM   15  O11 BTN A 300       3.026  15.301 -12.528  1.00 21.65    -0.647 OA
HETATM   16  O12 BTN A 300       4.378  13.838 -13.405  1.00 22.67    -0.647 OA
ENDBRANCH  13  14
ENDBRANCH  12  13
ENDBRANCH  11  12
ENDBRANCH  10  11
ENDBRANCH   3  10
TORSDOF 5
ENDMDL
MODEL 7
REMARK VINA RESULT:    -3.512      3.678      5.320
REMARK INTER + INTRA:          -4.784
REMARK INTER:                  -4.246
REMARK INTRA:                  -0.538
REMARK UNBOUND:                -0.245
REMARK  5 active torsions:
REMARK  status: ('A' for Active; 'I' for Inactive)
REMARK    1  A    between atoms: C2_3  and  C7_10 
REMARK    2  A    between atoms: C7_10  and  C8_11 
REMARK    3  A    between atoms: C8_11  and  C9_12 
REMARK    4  A    between atoms: C9_12  and  C10_13 
REMARK    5  A    between atoms: C10_13  and  C11_14 
ROOT
HETATM    1  N1  BTN A 300       5.480  13.331  -9.735  1.00 17.73    -0.217 NA
HETATM    2  S1  BTN A 300       3.938  15.723 -11.438  1.00 16.59    -0.137 SA
HETATM    3  C2  BTN A 300       4.250  14.474 -12.752  1.00 17.74     0.072 C 
HETATM    4  N2  BTN A 300       6.279  13.415 -11.766  1.00 17.92    -0.217 NA
HETATM    5  C3  BTN A 300       6.601  13.456 -10.454  1.00 17.95     0.360 A 
HETATM    6  O3  BTN A 300       7.777  13.590 -10.052  1.00 17.93    -0.243 OA
HETATM    7  C4  BTN A 300       4.841  13.268 -11.983  1.00 17.65     0.141 A 
HETATM    8  C5  BTN A 300       4.283  13.207 -10.564  1.00 17.47     0.142 A 
HETATM    9  C6  BTN A 300       3.314  14.368 -10.375  1.00 17.06     0.084 C 
ENDROOT
BRANCH   3  10
HETATM   10  C7  BTN A 300       5.091  14.794 -13.921  1.00 18.33     0.013 C 
BRANCH  10  11
HETATM   11  C8  BTN A 300       5.451  16.218 -14.339  1.00 19.24     0.002 C 
BRANCH  11  12
HETATM   12  C9  BTN A 300       6.883  16.450 -14.608  1.00 20.09     0.011 C 
BRANCH  12  13
HETATM   13  C10 BTN A 300       7.777  15.196 -14.313  1.00 20.77     0.098 C 
BRANCH  13  14
HETATM   14  C11 BTN A 300       8.805  15.498 -13.281  1.00 21.57     0.185 C 
HETATM   15  O11 BTN A 300       9.831  14.834 -13.080  1.00 21.65    -0.647 OA
HETATM   16  O12 BTN A 300       8.338  16.188 -12.258  1.00 22.67    -0.647 OA
ENDBRANCH  13  14
ENDBRANCH  12  13
ENDBRANCH  11  12
ENDBRANCH  10  11
ENDBRANCH   3  10
TORSDOF 5
ENDMDL
MODEL 8
REMARK VINA RESULT:    -3.481      4.149      6.917
REMARK INTER + INTRA:          -4.744
REMARK INTER:                  -4.495
REMARK INTRA:                  -0.248
REMARK UNBOUND:                -0.245
REMARK  5 active torsions:
REMARK  status: ('A' for Active; 'I' for Inactive)
REMARK    1  A    between atoms: C2_3  and  C7_10 
REMARK    2  A    between atoms: C7_10  and  C8_11 
REMARK    3  A    between atoms: C8_11  and  C9_12 
REMARK    4  A    between atoms: C9_12  and  C10_13 
REMARK    5  A    between atoms: C10_13  and  C11_14 
ROOT
HETATM    1  N1  BTN A 300       8.995  16.526 -13.939  1.00 17.73    -0.217 NA
HETATM    2  S1  BTN A 300       8.036  15.871 -10.832  1.00 16.59    -0.137 SA
HETATM    3  C2  BTN A 300       7.909  14.212 -11.617  1.00 17.74     0.072 C 
HETATM    4  N2  BTN A 300       7.478  14.955 -13.956  1.00 17.92    -0.217 NA
HETATM    5  C3  BTN A 300       7.809  16.170 -14.445  1.00 17.95     0.360 A 
HETATM    6  O3  BTN A 300       7.078  16.800 -15.239  1.00 17.93    -0.243 OA
HETATM    7  C4  BTN A 300       8.485  14.430 -13.036  1.00 17.65     0.141 A 
HETATM    8  C5  BTN A 300       9.546  15.526 -13.026  1.00 17.47     0.142 A 
HETATM    9  C6  BTN A 300       9.689  16.047 -11.600  1.00 17.06     0.084 C 
ENDROOT
BRANCH   3  10
HETATM   10  C7  BTN A 300       6.617  13.505 -11.695  1.00 18.33     0.013 C 
BRANCH  10  11
HETATM   11  C8  BTN A 300       5.792  13.114 -10.471  1.00 19.24     0.002 C 
BRANCH  11  12
HETATM   12  C9  BTN A 300       4.549  12.374 -10.763  1.00 20.09     0.011 C 
BRANCH  12  13
HETATM   13  C10 BTN A 300       3.400  12.666  -9.736  1.00 20.77     0.098 C 
BRANCH  13  14
HETATM   14  C11 BTN A 300       3.914  12.672  -8.340  1.00 21.57     0.185 C 
HETATM   15  O11 BTN A 300       4.136  11.663  -7.658  1.00 21.65    -0.647 OA
HETATM   16  O12 BTN A 300       3.637  13.781  -7.682  1.00 22.67    -0.647 OA
ENDBRANCH  13  14
ENDBRANCH  12  13
ENDBRANCH  11  12
ENDBRANCH  10  11
ENDBRANCH   3  10
TORSDOF 5
ENDMDL
MODEL 9
REMARK VINA RESULT:    -3.429     13.873     15.178
REMARK INTER + INTRA:          -4.676
REMARK INTER:                  -4.190
REMARK INTRA:                  -0.486
REMARK UNBOUND:                -0.245
REMARK  5 active torsions:
REMARK  status: ('A' for Active; 'I' for Inactive)
REMARK    1  A    between atoms: C2_3  and  C7_10 
REMARK    2  A    between atoms: C7_10  and  C8_11 
REMARK    3  A    between atoms: C8_11  and  C9_12 
REMARK    4  A    between atoms: C9_12  and  C10_13 
REMARK    5  A    between atoms: C10_13  and  C11_14 
ROOT
HETATM    1  N1  BTN A 300      -1.863   5.224 -17.599  1.00 17.73    -0.217 NA
HETATM    2  S1  BTN A 300       1.277   5.417 -16.548  1.00 16.59    -0.137 SA
HETATM    3  C2  BTN A 300       0.662   3.956 -15.614  1.00 17.74     0.072 C 
HETATM    4  N2  BTN A 300      -1.747   4.583 -15.514  1.00 17.92    -0.217 NA
HETATM    5  C3  BTN A 300      -2.351   5.435 -16.371  1.00 17.95     0.360 A 
HETATM    6  O3  BTN A 300      -3.218   6.258 -16.005  1.00 17.93    -0.243 OA
HETATM    7  C4  BTN A 300      -0.761   3.730 -16.176  1.00 17.65     0.141 A 
HETATM    8  C5  BTN A 300      -0.844   4.177 -17.632  1.00 17.47     0.142 A 
HETATM    9  C6  BTN A 300       0.524   4.701 -18.056  1.00 17.06     0.084 C 
ENDROOT
BRANCH   3  10
HETATM   10  C7  BTN A 300       0.634   3.953 -14.139  1.00 18.33     0.013 C 
BRANCH  10  11
HETATM   11  C8  BTN A 300       1.636   3.190 -13.276  1.00 19.24     0.002 C 
BRANCH  11  12
HETATM   12  C9  BTN A 300       2.729   2.532 -14.017  1.00 20.09     0.011 C 
BRANCH  12  13
HETATM   13  C10 BTN A 300       4.104   3.272 -13.876  1.00 20.77     0.098 C 
BRANCH  13  14
HETATM   14  C11 BTN A 300       4.631   3.688 -15.203  1.00 21.57     0.185 C 
HETATM   15  O11 BTN A 300       5.134   4.791 -15.457  1.00 21.65    -0.647 OA
HETATM   16  O12 BTN A 300       4.082   3.042 -16.214  1.00 22.67    -0.647 OA
ENDBRANCH  13  14
ENDBRANCH  12  13
ENDBRANCH  11  12
ENDBRANCH  10  11
ENDBRANCH   3  10
TORSDOF 5
ENDMDL
