MODEL 1
REMARK VINA RESULT:    -3.534      0.000      0.000
REMARK INTER + INTRA:          -5.156
REMARK INTER:                  -4.567
REMARK INTRA:                  -0.589
REMARK UNBOUND:                -0.589
REMARK  5 active torsions:
REMARK  status: ('A' for Active; 'I' for Inactive)
REMARK    1  A    between atoms: C2_3  and  C7_10 
REMARK    2  A    between atoms: C7_10  and  C8_11 
REMARK    3  A    between atoms: C8_11  and  C9_12 
REMARK    4  A    between atoms: C9_12  and  C10_13 
REMARK    5  A    between atoms: C10_13  and  C11_14 
ROOT
HETATM    1  N1  BTN A 300      21.415  -2.011  15.982  1.00 17.73    -0.217 NA
HETATM    2  S1  BTN A 300      22.331   1.056  16.856  1.00 16.59    -0.137 SA
HETATM    3  C2  BTN A 300      21.344   1.381  15.338  1.00 17.74     0.072 C 
HETATM    4  N2  BTN A 300      21.721  -0.799  14.191  1.00 17.92    -0.217 NA
HETATM    5  C3  BTN A 300      22.073  -1.942  14.820  1.00 17.95     0.360 A 
HETATM    6  O3  BTN A 300      22.887  -2.757  14.333  1.00 17.93    -0.243 OA
HETATM    7  C4  BTN A 300      20.769  -0.006  14.967  1.00 17.65     0.141 A 
HETATM    8  C5  BTN A 300      20.553  -0.853  16.216  1.00 17.47     0.142 A 
HETATM    9  C6  BTN A 300      20.980  -0.039  17.432  1.00 17.06     0.084 C 
ENDROOT
BRANCH   3  10
HETATM   10  C7  BTN A 300      21.957   2.011  14.153  1.00 18.33     0.013 C 
BRANCH  10  11
HETATM   11  C8  BTN A 300      23.207   2.886  14.213  1.00 19.24     0.002 C 
BRANCH  11  12
HETATM   12  C9  BTN A 300      24.467   2.206  13.856  1.00 20.09     0.011 C 
BRANCH  12  13
HETATM   13  C10 BTN A 300      24.272   1.055  12.808  1.00 20.77     0.098 C 
BRANCH  13  14
HETATM   14  C11 BTN A 300      25.186  -0.085  13.083  1.00 21.57     0.185 C 
HETATM   15  O11 BTN A 300      25.452  -0.994  12.285  1.00 21.65    -0.647 OA
HETATM   16  O12 BTN A 300      25.298  -0.373  14.365  1.00 22.67    -0.647 OA
ENDBRANCH  13  14
ENDBRANCH  12  13
ENDBRANCH  11  12
ENDBRANCH  10  11
ENDBRANCH   3  10
TORSDOF 5
ENDMDL
MODEL 2
REMARK VINA RESULT:    -3.522     20.886     22.020
REMARK INTER + INTRA:          -5.141
REMARK INTER:                  -4.902
REMARK INTRA:                  -0.239
REMARK UNBOUND:                -0.589
REMARK  5 active torsions:
REMARK  status: ('A' for Active; 'I' for Inactive)
REMARK    1  A    between atoms: C2_3  and  C7_10 
REMARK    2  A    between atoms: C7_10  and  C8_11 
REMARK    3  A    between atoms: C8_11  and  C9_12 
REMARK    4  A    between atoms: C9_12  and  C10_13 
REMARK    5  A    between atoms: C10_13  and  C11_14 
ROOT
HETATM    1  N1  BTN A 300      20.058  -9.782  -2.214  1.00 17.73    -0.217 NA
HETATM    2  S1  BTN A 300      20.878 -11.252  -5.072  1.00 16.59    -0.137 SA
HETATM    3  C2  BTN A 300      21.501  -9.542  -5.342  1.00 17.74     0.072 C 
HETATM    4  N2  BTN A 300      19.909  -8.341  -3.849  1.00 17.92    -0.217 NA
HETATM    5  C3  BTN A 300      19.241  -8.915  -2.823  1.00 17.95     0.360 A 
HETATM    6  O3  BTN A 300      18.056  -8.631  -2.547  1.00 17.93    -0.243 OA
HETATM    7  C4  BTN A 300      21.274  -8.847  -3.979  1.00 17.65     0.141 A 
HETATM    8  C5  BTN A 300      21.379  -9.851  -2.836  1.00 17.47     0.142 A 
HETATM    9  C6  BTN A 300      21.680 -11.225  -3.426  1.00 17.06     0.084 C 
ENDROOT
BRANCH   3  10
HETATM   10  C7  BTN A 300      20.973  -8.705  -6.435  1.00 18.33     0.013 C 
BRANCH  10  11
HETATM   11  C8  BTN A 300      21.809  -7.673  -7.190  1.00 19.24     0.002 C 
BRANCH  11  12
HETATM   12  C9  BTN A 300      23.230  -8.027  -7.366  1.00 20.09     0.011 C 
BRANCH  12  13
HETATM   13  C10 BTN A 300      24.075  -6.880  -8.022  1.00 20.77     0.098 C 
BRANCH  13  14
HETATM   14  C11 BTN A 300      25.530  -7.076  -7.782  1.00 21.57     0.185 C 
HETATM   15  O11 BTN A 300      26.275  -6.263  -7.218  1.00 21.65    -0.647 OA
HETATM   16  O12 BTN A 300      26.098  -7.905  -8.636  1.00 22.67    -0.647 OA
ENDBRANCH  13  14
ENDBRANCH  12  13
ENDBRANCH  11  12
ENDBRANCH  10  11
ENDBRANCH   3  10
TORSDOF 5
ENDMDL
MODEL 3
REMARK VINA RESULT:    -3.411     21.583     22.755
REMARK INTER + INTRA:          -4.997
REMARK INTER:                  -4.642
REMARK INTRA:                  -0.356
REMARK UNBOUND:                -0.589
REMARK  5 active torsions:
REMARK  status: ('A' for Active; 'I' for Inactive)
REMARK    1  A    between atoms: C2_3  and  C7_10 
REMARK    2  A    between atoms: C7_10  and  C8_11 
REMARK    3  A    between atoms: C8_11  and  C9_12 
REMARK    4  A    between atoms: C9_12  and  C10_13 
REMARK    5  A    between atoms: C10_13  and  C11_14 
ROOT
HETATM    1  N1  BTN A 300      19.758  -9.948  -3.826  1.00 17.73    -0.217 NA
HETATM    2  S1  BTN A 300      19.878  -9.581  -7.121  1.00 16.59    -0.137 SA
HETATM    3  C2  BTN A 300      21.548  -8.994  -6.621  1.00 17.74     0.072 C 
HETATM    4  N2  BTN A 300      20.980  -8.208  -4.326  1.00 17.92    -0.217 NA
HETATM    5  C3  BTN A 300      19.914  -8.637  -3.613  1.00 17.95     0.360 A 
HETATM    6  O3  BTN A 300      19.235  -7.876  -2.891  1.00 17.93    -0.243 OA
HETATM    7  C4  BTN A 300      21.601  -9.280  -5.101  1.00 17.65     0.141 A 
HETATM    8  C5  BTN A 300      20.749 -10.496  -4.751  1.00 17.47     0.142 A 
HETATM    9  C6  BTN A 300      20.123 -11.034  -6.033  1.00 17.06     0.084 C 
ENDROOT
BRANCH   3  10
HETATM   10  C7  BTN A 300      21.981  -7.611  -6.893  1.00 18.33     0.013 C 
BRANCH  10  11
HETATM   11  C8  BTN A 300      22.876  -7.221  -8.068  1.00 19.24     0.002 C 
BRANCH  11  12
HETATM   12  C9  BTN A 300      24.293  -6.990  -7.728  1.00 20.09     0.011 C 
BRANCH  12  13
HETATM   13  C10 BTN A 300      25.270  -7.985  -8.444  1.00 20.77     0.098 C 
BRANCH  13  14
HETATM   14  C11 BTN A 300      25.887  -8.928  -7.473  1.00 21.57     0.185 C 
HETATM   15  O11 BTN A 300      27.076  -9.275  -7.473  1.00 21.65    -0.647 OA
HETATM   16  O12 BTN A 300      25.025  -9.771  -6.938  1.00 22.67    -0.647 OA
ENDBRANCH  13  14
ENDBRANCH  12  13
ENDBRANCH  11  12
ENDBRANCH  10  11
ENDBRANCH   3  10
TORSDOF 5
ENDMDL
MODEL 4
REMARK VINA RESULT:    -3.394      1.657      2.201
REMARK INTER + INTRA:          -4.976
REMARK INTER:                  -4.664
REMARK INTRA:                  -0.311
REMARK UNBOUND:                -0.589
REMARK  5 active torsions:
REMARK  status: ('A' for Active; 'I' for Inactive)
REMARK    1  A    between atoms: C2_3  and  C7_10 
REMARK    2  A    between atoms: C7_10  and  C8_11 
REMARK    3  A    between atoms: C8_11  and  C9_12 
REMARK    4  A    between atoms: C9_12  and  C10_13 
REMARK    5  A    between atoms: C10_13  and  C11_14 
ROOT
HETATM    1  N1  BTN A 300      20.375  -0.140  16.762  1.00 17.73    -0.217 NA
HETATM    2  S1  BTN A 300      23.068   1.721  16.227  1.00 16.59    -0.137 SA
HETATM    3  C2  BTN A 300      22.183   1.879  14.622  1.00 17.74     0.072 C 
HETATM    4  N2  BTN A 300      20.971  -0.298  14.666  1.00 17.92    -0.217 NA
HETATM    5  C3  BTN A 300      20.701  -0.999  15.790  1.00 17.95     0.360 A 
HETATM    6  O3  BTN A 300      20.764  -2.247  15.837  1.00 17.93    -0.243 OA
HETATM    7  C4  BTN A 300      20.843   1.145  14.865  1.00 17.65     0.141 A 
HETATM    8  C5  BTN A 300      20.425   1.255  16.328  1.00 17.47     0.142 A 
HETATM    9  C6  BTN A 300      21.480   2.065  17.073  1.00 17.06     0.084 C 
ENDROOT
BRANCH   3  10
HETATM   10  C7  BTN A 300      22.799   1.411  13.366  1.00 18.33     0.013 C 
BRANCH  10  11
HETATM   11  C8  BTN A 300      24.135   0.674  13.302  1.00 19.24     0.002 C 
BRANCH  11  12
HETATM   12  C9  BTN A 300      24.073  -0.689  12.740  1.00 20.09     0.011 C 
BRANCH  12  13
HETATM   13  C10 BTN A 300      25.487  -1.335  12.531  1.00 20.77     0.098 C 
BRANCH  13  14
HETATM   14  C11 BTN A 300      25.659  -2.543  13.381  1.00 21.57     0.185 C 
HETATM   15  O11 BTN A 300      26.568  -3.375  13.262  1.00 21.65    -0.647 OA
HETATM   16  O12 BTN A 300      24.535  -2.969  13.924  1.00 22.67    -0.647 OA
ENDBRANCH  13  14
ENDBRANCH  12  13
ENDBRANCH  11  12
ENDBRANCH  10  11
ENDBRANCH   3  10
TORSDOF 5
ENDMDL
MODEL 5
REMARK VINA RESULT:    -3.340      2.741      3.462
REMARK INTER + INTRA:          -4.905
REMARK INTER:                  -4.700
REMARK INTRA:                  -0.205
REMARK UNBOUND:                -0.589
REMARK  5 active torsions:
REMARK  status: ('A' for Active; 'I' for Inactive)
REMARK    1  A    between atoms: C2_3  and  C7_10 
REMARK    2  A    between atoms: C7_10  and  C8_11 
REMARK    3  A    between atoms: C8_11  and  C9_12 
REMARK    4  A    between atoms: C9_12  and  C10_13 
REMARK    5  A    between atoms: C10_13  and  C11_14 
ROOT
HETATM    1  N1  BTN A 300      22.621  -2.813  14.405  1.00 17.73    -0.217 NA
HETATM    2  S1  BTN A 300      21.098  -0.465  16.185  1.00 16.59    -0.137 SA
HETATM    3  C2  BTN A 300      20.959   0.213  14.481  1.00 17.74     0.072 C 
HETATM    4  N2  BTN A 300      22.986  -0.858  13.504  1.00 17.92    -0.217 NA
HETATM    5  C3  BTN A 300      23.575  -1.970  13.996  1.00 17.95     0.360 A 
HETATM    6  O3  BTN A 300      24.816  -2.118  14.029  1.00 17.93    -0.243 OA
HETATM    7  C4  BTN A 300      21.528  -0.915  13.587  1.00 17.65     0.141 A 
HETATM    8  C5  BTN A 300      21.273  -2.281  14.214  1.00 17.47     0.142 A 
HETATM    9  C6  BTN A 300      20.529  -2.078  15.530  1.00 17.06     0.084 C 
ENDROOT
BRANCH   3  10
HETATM   10  C7  BTN A 300      21.576   1.505  14.124  1.00 18.33     0.013 C 
BRANCH  10  11
HETATM   11  C8  BTN A 300      22.422   2.333  15.089  1.00 19.24     0.002 C 
BRANCH  11  12
HETATM   12  C9  BTN A 300      23.183   3.434  14.469  1.00 20.09     0.011 C 
BRANCH  12  13
HETATM   13  C10 BTN A 300      24.160   4.148  15.466  1.00 20.77     0.098 C 
BRANCH  13  14
HETATM   14  C11 BTN A 300      24.639   5.444  14.917  1.00 21.57     0.185 C 
HETATM   15  O11 BTN A 300      23.961   6.477  14.832  1.00 21.65    -0.647 OA
HETATM   16  O12 BTN A 300      25.633   5.317  14.058  1.00 22.67    -0.647 OA
ENDBRANCH  13  14
ENDBRANCH  12  13
ENDBRANCH  11  12
ENDBRANCH  10  11
ENDBRANCH   3  10
TORSDOF 5
ENDMDL
MODEL 6
REMARK VINA RESULT:    -3.334      9.044     11.247
REMARK INTER + INTRA:          -4.898
REMARK INTER:                  -4.695
REMARK INTRA:                  -0.202
REMARK UNBOUND:                -0.589
REMARK  5 active torsions:
REMARK  status: ('A' for Active; 'I' for Inactive)
REMARK    1  A    between atoms: C2_3  and  C7_10 
REMARK    2  A    between atoms: C7_10  and  C8_11 
REMARK    3  A    between atoms: C8_11  and  C9_12 
REMARK    4  A    between atoms: C9_12  and  C10_13 
REMARK    5  A    between atoms: C10_13  and  C11_14 
ROOT
HETATM    1  N1  BTN A 300      28.966  -0.909   9.683  1.00 17.73    -0.217 NA
HETATM    2  S1  BTN A 300      30.094  -3.194   7.560  1.00 16.59    -0.137 SA
HETATM    3  C2  BTN A 300      28.811  -2.349   6.549  1.00 17.74     0.072 C 
HETATM    4  N2  BTN A 300      27.332  -1.592   8.406  1.00 17.92    -0.217 NA
HETATM    5  C3  BTN A 300      27.734  -1.431   9.686  1.00 17.95     0.360 A 
HETATM    6  O3  BTN A 300      27.017  -1.739  10.662  1.00 17.93    -0.243 OA
HETATM    7  C4  BTN A 300      28.349  -1.174   7.444  1.00 17.65     0.141 A 
HETATM    8  C5  BTN A 300      29.489  -0.694   8.336  1.00 17.47     0.142 A 
HETATM    9  C6  BTN A 300      30.722  -1.542   8.042  1.00 17.06     0.084 C 
ENDROOT
BRANCH   3  10
HETATM   10  C7  BTN A 300      27.642  -3.086   6.034  1.00 18.33     0.013 C 
BRANCH  10  11
HETATM   11  C8  BTN A 300      27.560  -4.610   5.981  1.00 19.24     0.002 C 
BRANCH  11  12
HETATM   12  C9  BTN A 300      27.632  -5.196   4.629  1.00 20.09     0.011 C 
BRANCH  12  13
HETATM   13  C10 BTN A 300      26.350  -6.010   4.239  1.00 20.77     0.098 C 
BRANCH  13  14
HETATM   14  C11 BTN A 300      26.692  -7.180   3.387  1.00 21.57     0.185 C 
HETATM   15  O11 BTN A 300      27.827  -7.658   3.254  1.00 21.65    -0.647 OA
HETATM   16  O12 BTN A 300      25.851  -7.369   2.389  1.00 22.67    -0.647 OA
ENDBRANCH  13  14
ENDBRANCH  12  13
ENDBRANCH  11  12
ENDBRANCH  10  11
ENDBRANCH   3  10
TORSDOF 5
ENDMDL
MODEL 7
REMARK VINA RESULT:    -3.314      1.980      2.289
REMARK INTER + INTRA:          -4.872
REMARK INTER:                  -4.572
REMARK INTRA:                  -0.300
REMARK UNBOUND:                -0.589
REMARK  5 active torsions:
REMARK  status: ('A' for Active; 'I' for Inactive)
REMARK    1  A    between atoms: C2_3  and  C7_10 
REMARK    2  A    between atoms: C7_10  and  C8_11 
REMARK    3  A    between atoms: C8_11  and  C9_12 
REMARK    4  A    between atoms: C9_12  and  C10_13 
REMARK    5  A    between atoms: C10_13  and  C11_14 
ROOT
HETATM    1  N1  BTN A 300      20.528  -0.216  16.854  1.00 17.73    -0.217 NA
HETATM    2  S1  BTN A 300      23.318   1.423  16.123  1.00 16.59    -0.137 SA
HETATM    3  C2  BTN A 300      22.325   1.681  14.596  1.00 17.74     0.072 C 
HETATM    4  N2  BTN A 300      20.941  -0.387  14.716  1.00 17.92    -0.217 NA
HETATM    5  C3  BTN A 300      20.702  -1.083  15.850  1.00 17.95     0.360 A 
HETATM    6  O3  BTN A 300      20.663  -2.331  15.879  1.00 17.93    -0.243 OA
HETATM    7  C4  BTN A 300      20.952   1.057  14.939  1.00 17.65     0.141 A 
HETATM    8  C5  BTN A 300      20.661   1.177  16.431  1.00 17.47     0.142 A 
HETATM    9  C6  BTN A 300      21.837   1.884  17.097  1.00 17.06     0.084 C 
ENDROOT
BRANCH   3  10
HETATM   10  C7  BTN A 300      22.798   1.185  13.289  1.00 18.33     0.013 C 
BRANCH  10  11
HETATM   11  C8  BTN A 300      24.131   0.466  13.090  1.00 19.24     0.002 C 
BRANCH  11  12
HETATM   12  C9  BTN A 300      25.073   1.136  12.173  1.00 20.09     0.011 C 
BRANCH  12  13
HETATM   13  C10 BTN A 300      25.829   2.340  12.836  1.00 20.77     0.098 C 
BRANCH  13  14
HETATM   14  C11 BTN A 300      27.301   2.128  12.819  1.00 21.57     0.185 C 
HETATM   15  O11 BTN A 300      27.991   2.002  11.798  1.00 21.65    -0.647 OA
HETATM   16  O12 BTN A 300      27.765   1.568  13.919  1.00 22.67    -0.647 OA
ENDBRANCH  13  14
ENDBRANCH  12  13
ENDBRANCH  11  12
ENDBRANCH  10  11
ENDBRANCH   3  10
TORSDOF 5
ENDMDL
MODEL 8
REMARK VINA RESULT:    -3.278      3.284      4.245
REMARK INTER + INTRA:          -4.826
REMARK INTER:                  -4.489
REMARK INTRA:                  -0.336
REMARK UNBOUND:                -0.589
REMARK  5 active torsions:
REMARK  status: ('A' for Active; 'I' for Inactive)
REMARK    1  A    between atoms: C2_3  and  C7_10 
REMARK    2  A    between atoms: C7_10  and  C8_11 
REMARK    3  A    between atoms: C8_11  and  C9_12 
REMARK    4  A    between atoms: C9_12  and  C10_13 
REMARK    5  A    between atoms: C10_13  and  C11_14 
ROOT
HETATM    1  N1  BTN A 300      22.103  -0.197  13.315  1.00 17.73    -0.217 NA
HETATM    2  S1  BTN A 300      22.038  -0.262  16.630  1.00 16.59    -0.137 SA
HETATM    3  C2  BTN A 300      21.846   1.536  16.290  1.00 17.74     0.072 C 
HETATM    4  N2  BTN A 300      23.035   1.615  14.101  1.00 17.92    -0.217 NA
HETATM    5  C3  BTN A 300      23.213   0.548  13.290  1.00 17.95     0.360 A 
HETATM    6  O3  BTN A 300      24.270   0.357  12.650  1.00 17.93    -0.243 OA
HETATM    7  C4  BTN A 300      21.725   1.609  14.750  1.00 17.65     0.141 A 
HETATM    8  C5  BTN A 300      21.073   0.345  14.198  1.00 17.47     0.142 A 
HETATM    9  C6  BTN A 300      20.752  -0.581  15.366  1.00 17.06     0.084 C 
ENDROOT
BRANCH   3  10
HETATM   10  C7  BTN A 300      22.845   2.511  16.769  1.00 18.33     0.013 C 
BRANCH  10  11
HETATM   11  C8  BTN A 300      22.486   3.896  17.301  1.00 19.24     0.002 C 
BRANCH  11  12
HETATM   12  C9  BTN A 300      23.367   4.990  16.848  1.00 20.09     0.011 C 
BRANCH  12  13
HETATM   13  C10 BTN A 300      23.485   5.081  15.287  1.00 20.77     0.098 C 
BRANCH  13  14
HETATM   14  C11 BTN A 300      24.168   6.335  14.870  1.00 21.57     0.185 C 
HETATM   15  O11 BTN A 300      23.631   7.449  14.799  1.00 21.65    -0.647 OA
HETATM   16  O12 BTN A 300      25.214   6.133  14.093  1.00 22.67    -0.647 OA
ENDBRANCH  13  14
ENDBRANCH  12  13
ENDBRANCH  11  12
ENDBRANCH  10  11
ENDBRANCH   3  10
TORSDOF 5
ENDMDL
MODEL 9
REMARK VINA RESULT:    -3.251      2.270      2.715
REMARK INTER + INTRA:          -4.791
REMARK INTER:                  -4.321
REMARK INTRA:                  -0.470
REMARK UNBOUND:                -0.589
REMARK  5 active torsions:
REMARK  status: ('A' for Active; 'I' for Inactive)
REMARK    1  A    between atoms: C2_3  and  C7_10 
REMARK    2  A    between atoms: C7_10  and  C8_11 
REMARK    3  A    between atoms: C8_11  and  C9_12 
REMARK    4  A    between atoms: C9_12  and  C10_13 
REMARK    5  A    between atoms: C10_13  and  C11_14 
ROOT
HETATM    1  N1  BTN A 300      21.588  -2.764  14.344  1.00 17.73    -0.217 NA
HETATM    2  S1  BTN A 300      23.621  -0.401  13.210  1.00 16.59    -0.137 SA
HETATM    3  C2  BTN A 300      22.811   0.453  14.624  1.00 17.74     0.072 C 
HETATM    4  N2  BTN A 300      20.661  -0.806  14.618  1.00 17.92    -0.217 NA
HETATM    5  C3  BTN A 300      20.497  -2.036  14.083  1.00 17.95     0.360 A 
HETATM    6  O3  BTN A 300      19.465  -2.369  13.461  1.00 17.93    -0.243 OA
HETATM    7  C4  BTN A 300      21.954  -0.654  15.282  1.00 17.65     0.141 A 
HETATM    8  C5  BTN A 300      22.601  -2.022  15.092  1.00 17.47     0.142 A 
HETATM    9  C6  BTN A 300      23.896  -1.840  14.308  1.00 17.06     0.084 C 
ENDROOT
BRANCH   3  10
HETATM   10  C7  BTN A 300      22.000   1.667  14.415  1.00 18.33     0.013 C 
BRANCH  10  11
HETATM   11  C8  BTN A 300      22.593   3.071  14.303  1.00 19.24     0.002 C 
BRANCH  11  12
HETATM   12  C9  BTN A 300      23.771   3.323  15.155  1.00 20.09     0.011 C 
BRANCH  12  13
HETATM   13  C10 BTN A 300      24.962   3.987  14.380  1.00 20.77     0.098 C 
BRANCH  13  14
HETATM   14  C11 BTN A 300      25.904   2.961  13.859  1.00 21.57     0.185 C 
HETATM   15  O11 BTN A 300      26.172   2.781  12.663  1.00 21.65    -0.647 OA
HETATM   16  O12 BTN A 300      26.047   1.921  14.658  1.00 22.67    -0.647 OA
ENDBRANCH  13  14
ENDBRANCH  12  13
ENDBRANCH  11  12
ENDBRANCH  10  11
ENDBRANCH   3  10
TORSDOF 5
ENDMDL
