MODEL 1
REMARK VINA RESULT:    -3.789      0.000      0.000
REMARK INTER + INTRA:          -5.136
REMARK INTER:                  -4.897
REMARK INTRA:                  -0.239
REMARK UNBOUND:                -0.239
REMARK  5 active torsions:
REMARK  status: ('A' for Active; 'I' for Inactive)
REMARK    1  A    between atoms: C2_3  and  C7_10 
REMARK    2  A    between atoms: C7_10  and  C8_11 
REMARK    3  A    between atoms: C8_11  and  C9_12 
REMARK    4  A    between atoms: C9_12  and  C10_13 
REMARK    5  A    between atoms: C10_13  and  C11_14 
ROOT
HETATM    1  N1  BTN A 300       6.692  14.538 -13.029  1.00 17.73    -0.217 NA
HETATM    2  S1  BTN A 300       8.460  17.317 -12.634  1.00 16.59    -0.137 SA
HETATM    3  C2  BTN A 300       9.768  16.105 -13.085  1.00 17.74     0.072 C 
HETATM    4  N2  BTN A 300       8.662  14.045 -12.224  1.00 17.92    -0.217 NA
HETATM    5  C3  BTN A 300       7.330  13.917 -12.031  1.00 17.95     0.360 A 
HETATM    6  O3  BTN A 300       6.847  13.303 -11.056  1.00 17.93    -0.243 OA
HETATM    7  C4  BTN A 300       8.979  14.818 -13.424  1.00 17.65     0.141 A 
HETATM    8  C5  BTN A 300       7.604  15.160 -13.987  1.00 17.47     0.142 A 
HETATM    9  C6  BTN A 300       7.464  16.678 -14.032  1.00 17.06     0.084 C 
ENDROOT
BRANCH   3  10
HETATM   10  C7  BTN A 300      10.872  15.796 -12.156  1.00 18.33     0.013 C 
BRANCH  10  11
HETATM   11  C8  BTN A 300      11.666  16.862 -11.404  1.00 19.24     0.002 C 
BRANCH  11  12
HETATM   12  C9  BTN A 300      13.117  16.868 -11.673  1.00 20.09     0.011 C 
BRANCH  12  13
HETATM   13  C10 BTN A 300      13.791  15.469 -11.460  1.00 20.77     0.098 C 
BRANCH  13  14
HETATM   14  C11 BTN A 300      14.606  15.447 -10.215  1.00 21.57     0.185 C 
HETATM   15  O11 BTN A 300      14.760  14.461  -9.481  1.00 21.65    -0.647 OA
HETATM   16  O12 BTN A 300      14.735  16.631  -9.649  1.00 22.67    -0.647 OA
ENDBRANCH  13  14
ENDBRANCH  12  13
ENDBRANCH  11  12
ENDBRANCH  10  11
ENDBRANCH   3  10
TORSDOF 5
ENDMDL
MODEL 2
REMARK VINA RESULT:    -3.701      3.591      6.726
REMARK INTER + INTRA:          -5.022
REMARK INTER:                  -4.733
REMARK INTRA:                  -0.289
REMARK UNBOUND:                -0.239
REMARK  5 active torsions:
REMARK  status: ('A' for Active; 'I' for Inactive)
REMARK    1  A    between atoms: C2_3  and  C7_10 
REMARK    2  A    between atoms: C7_10  and  C8_11 
REMARK    3  A    between atoms: C8_11  and  C9_12 
REMARK    4  A    between atoms: C9_12  and  C10_13 
REMARK    5  A    between atoms: C10_13  and  C11_14 
ROOT
HETATM    1  N1  BTN A 300      16.032  15.746 -10.964  1.00 17.73    -0.217 NA
HETATM    2  S1  BTN A 300      13.559  17.213  -9.309  1.00 16.59    -0.137 SA
HETATM    3  C2  BTN A 300      12.689  16.598 -10.808  1.00 17.74     0.072 C 
HETATM    4  N2  BTN A 300      14.621  16.625 -12.381  1.00 17.92    -0.217 NA
HETATM    5  C3  BTN A 300      15.918  16.585 -12.000  1.00 17.95     0.360 A 
HETATM    6  O3  BTN A 300      16.809  17.248 -12.572  1.00 17.93    -0.243 OA
HETATM    7  C4  BTN A 300      13.769  15.776 -11.551  1.00 17.65     0.141 A 
HETATM    8  C5  BTN A 300      14.754  15.160 -10.563  1.00 17.47     0.142 A 
HETATM    9  C6  BTN A 300      14.339  15.563  -9.152  1.00 17.06     0.084 C 
ENDROOT
BRANCH   3  10
HETATM   10  C7  BTN A 300      12.028  17.531 -11.741  1.00 18.33     0.013 C 
BRANCH  10  11
HETATM   11  C8  BTN A 300      10.616  17.325 -12.283  1.00 19.24     0.002 C 
BRANCH  11  12
HETATM   12  C9  BTN A 300       9.997  16.029 -11.946  1.00 20.09     0.011 C 
BRANCH  12  13
HETATM   13  C10 BTN A 300       9.722  15.131 -13.201  1.00 20.77     0.098 C 
BRANCH  13  14
HETATM   14  C11 BTN A 300       9.076  13.847 -12.815  1.00 21.57     0.185 C 
HETATM   15  O11 BTN A 300       8.407  13.666 -11.789  1.00 21.65    -0.647 OA
HETATM   16  O12 BTN A 300       9.663  12.786 -13.333  1.00 22.67    -0.647 OA
ENDBRANCH  13  14
ENDBRANCH  12  13
ENDBRANCH  11  12
ENDBRANCH  10  11
ENDBRANCH   3  10
TORSDOF 5
ENDMDL
MODEL 3
REMARK VINA RESULT:    -3.695      6.945      8.032
REMARK INTER + INTRA:          -5.014
REMARK INTER:                  -4.766
REMARK INTRA:                  -0.247
REMARK UNBOUND:                -0.239
REMARK  5 active torsions:
REMARK  status: ('A' for Active; 'I' for Inactive)
REMARK    1  A    between atoms: C2_3  and  C7_10 
REMARK    2  A    between atoms: C7_10  and  C8_11 
REMARK    3  A    between atoms: C8_11  and  C9_12 
REMARK    4  A    between atoms: C9_12  and  C10_13 
REMARK    5  A    between atoms: C10_13  and  C11_14 
ROOT
HETATM    1  N1  BTN A 300      18.029  17.328 -12.869  1.00 17.73    -0.217 NA
HETATM    2  S1  BTN A 300      14.901  16.621 -12.021  1.00 16.59    -0.137 SA
HETATM    3  C2  BTN A 300      15.834  15.969 -10.575  1.00 17.74     0.072 C 
HETATM    4  N2  BTN A 300      17.981  15.462 -11.734  1.00 17.92    -0.217 NA
HETATM    5  C3  BTN A 300      18.380  16.037 -12.891  1.00 17.95     0.360 A 
HETATM    6  O3  BTN A 300      18.976  15.404 -13.788  1.00 17.93    -0.243 OA
HETATM    7  C4  BTN A 300      17.294  16.403 -10.852  1.00 17.65     0.141 A 
HETATM    8  C5  BTN A 300      17.329  17.706 -11.643  1.00 17.47     0.142 A 
HETATM    9  C6  BTN A 300      15.895  18.155 -11.899  1.00 17.06     0.084 C 
ENDROOT
BRANCH   3  10
HETATM   10  C7  BTN A 300      15.787  14.537 -10.223  1.00 18.33     0.013 C 
BRANCH  10  11
HETATM   11  C8  BTN A 300      15.136  14.001  -8.950  1.00 19.24     0.002 C 
BRANCH  11  12
HETATM   12  C9  BTN A 300      15.193  14.907  -7.787  1.00 20.09     0.011 C 
BRANCH  12  13
HETATM   13  C10 BTN A 300      13.874  14.908  -6.939  1.00 20.77     0.098 C 
BRANCH  13  14
HETATM   14  C11 BTN A 300      13.972  13.971  -5.789  1.00 21.57     0.185 C 
HETATM   15  O11 BTN A 300      13.089  13.789  -4.939  1.00 21.65    -0.647 OA
HETATM   16  O12 BTN A 300      15.212  13.725  -5.413  1.00 22.67    -0.647 OA
ENDBRANCH  13  14
ENDBRANCH  12  13
ENDBRANCH  11  12
ENDBRANCH  10  11
ENDBRANCH   3  10
TORSDOF 5
ENDMDL
MODEL 4
REMARK VINA RESULT:    -3.630      4.179      6.652
REMARK INTER + INTRA:          -4.929
REMARK INTER:                  -4.552
REMARK INTRA:                  -0.377
REMARK UNBOUND:                -0.239
REMARK  5 active torsions:
REMARK  status: ('A' for Active; 'I' for Inactive)
REMARK    1  A    between atoms: C2_3  and  C7_10 
REMARK    2  A    between atoms: C7_10  and  C8_11 
REMARK    3  A    between atoms: C8_11  and  C9_12 
REMARK    4  A    between atoms: C9_12  and  C10_13 
REMARK    5  A    between atoms: C10_13  and  C11_14 
ROOT
HETATM    1  N1  BTN A 300       8.475  15.000 -13.178  1.00 17.73    -0.217 NA
HETATM    2  S1  BTN A 300       5.210  14.417 -13.242  1.00 16.59    -0.137 SA
HETATM    3  C2  BTN A 300       5.594  14.183 -11.458  1.00 17.74     0.072 C 
HETATM    4  N2  BTN A 300       7.973  13.479 -11.693  1.00 17.92    -0.217 NA
HETATM    5  C3  BTN A 300       8.750  13.759 -12.762  1.00 17.95     0.360 A 
HETATM    6  O3  BTN A 300       9.573  12.942 -13.230  1.00 17.93    -0.243 OA
HETATM    7  C4  BTN A 300       7.083  14.586 -11.345  1.00 17.65     0.141 A 
HETATM    8  C5  BTN A 300       7.436  15.649 -12.380  1.00 17.47     0.142 A 
HETATM    9  C6  BTN A 300       6.185  15.967 -13.192  1.00 17.06     0.084 C 
ENDROOT
BRANCH   3  10
HETATM   10  C7  BTN A 300       5.366  12.886 -10.795  1.00 18.33     0.013 C 
BRANCH  10  11
HETATM   11  C8  BTN A 300       4.062  12.513 -10.093  1.00 19.24     0.002 C 
BRANCH  11  12
HETATM   12  C9  BTN A 300       4.215  11.988  -8.722  1.00 20.09     0.011 C 
BRANCH  12  13
HETATM   13  C10 BTN A 300       3.990  13.075  -7.615  1.00 20.77     0.098 C 
BRANCH  13  14
HETATM   14  C11 BTN A 300       5.284  13.581  -7.085  1.00 21.57     0.185 C 
HETATM   15  O11 BTN A 300       5.669  13.466  -5.914  1.00 21.65    -0.647 OA
HETATM   16  O12 BTN A 300       5.774  14.596  -7.771  1.00 22.67    -0.647 OA
ENDBRANCH  13  14
ENDBRANCH  12  13
ENDBRANCH  11  12
ENDBRANCH  10  11
ENDBRANCH   3  10
TORSDOF 5
ENDMDL
MODEL 5
REMARK VINA RESULT:    -3.581      3.838      5.062
REMARK INTER + INTRA:          -4.866
REMARK INTER:                  -4.420
REMARK INTRA:                  -0.446
REMARK UNBOUND:                -0.239
REMARK  5 active torsions:
REMARK  status: ('A' for Active; 'I' for Inactive)
REMARK    1  A    between atoms: C2_3  and  C7_10 
REMARK    2  A    between atoms: C7_10  and  C8_11 
REMARK    3  A    between atoms: C8_11  and  C9_12 
REMARK    4  A    between atoms: C9_12  and  C10_13 
REMARK    5  A    between atoms: C10_13  and  C11_14 
ROOT
HETATM    1  N1  BTN A 300       4.056  12.732  -9.323  1.00 17.73    -0.217 NA
HETATM    2  S1  BTN A 300       4.788  14.858 -11.762  1.00 16.59    -0.137 SA
HETATM    3  C2  BTN A 300       6.440  14.585 -10.998  1.00 17.74     0.072 C 
HETATM    4  N2  BTN A 300       5.682  14.045  -8.687  1.00 17.92    -0.217 NA
HETATM    5  C3  BTN A 300       4.448  13.590  -8.374  1.00 17.95     0.360 A 
HETATM    6  O3  BTN A 300       3.835  13.954  -7.348  1.00 17.93    -0.243 OA
HETATM    7  C4  BTN A 300       6.182  13.485  -9.942  1.00 17.65     0.141 A 
HETATM    8  C5  BTN A 300       5.048  12.567 -10.384  1.00 17.47     0.142 A 
HETATM    9  C6  BTN A 300       4.541  13.043 -11.741  1.00 17.06     0.084 C 
ENDROOT
BRANCH   3  10
HETATM   10  C7  BTN A 300       7.193  15.702 -10.397  1.00 18.33     0.013 C 
BRANCH  10  11
HETATM   11  C8  BTN A 300       8.701  15.886 -10.554  1.00 19.24     0.002 C 
BRANCH  11  12
HETATM   12  C9  BTN A 300       9.134  16.434 -11.854  1.00 20.09     0.011 C 
BRANCH  12  13
HETATM   13  C10 BTN A 300      10.115  15.486 -12.627  1.00 20.77     0.098 C 
BRANCH  13  14
HETATM   14  C11 BTN A 300       9.374  14.426 -13.361  1.00 21.57     0.185 C 
HETATM   15  O11 BTN A 300       8.298  14.588 -13.953  1.00 21.65    -0.647 OA
HETATM   16  O12 BTN A 300       9.634  13.207 -12.930  1.00 22.67    -0.647 OA
ENDBRANCH  13  14
ENDBRANCH  12  13
ENDBRANCH  11  12
ENDBRANCH  10  11
ENDBRANCH   3  10
TORSDOF 5
ENDMDL
MODEL 6
REMARK VINA RESULT:    -3.532      3.879      4.806
REMARK INTER + INTRA:          -4.803
REMARK INTER:                  -4.349
REMARK INTRA:                  -0.455
REMARK UNBOUND:                -0.239
REMARK  5 active torsions:
REMARK  status: ('A' for Active; 'I' for Inactive)
REMARK    1  A    between atoms: C2_3  and  C7_10 
REMARK    2  A    between atoms: C7_10  and  C8_11 
REMARK    3  A    between atoms: C8_11  and  C9_12 
REMARK    4  A    between atoms: C9_12  and  C10_13 
REMARK    5  A    between atoms: C10_13  and  C11_14 
ROOT
HETATM    1  N1  BTN A 300       3.740  14.244 -10.473  1.00 17.73    -0.217 NA
HETATM    2  S1  BTN A 300       5.801  15.194 -12.892  1.00 16.59    -0.137 SA
HETATM    3  C2  BTN A 300       6.669  13.717 -12.223  1.00 17.74     0.072 C 
HETATM    4  N2  BTN A 300       5.801  13.817  -9.890  1.00 17.92    -0.217 NA
HETATM    5  C3  BTN A 300       4.662  14.446  -9.525  1.00 17.95     0.360 A 
HETATM    6  O3  BTN A 300       4.560  15.091  -8.459  1.00 17.93    -0.243 OA
HETATM    7  C4  BTN A 300       5.678  13.145 -11.182  1.00 17.65     0.141 A 
HETATM    8  C5  BTN A 300       4.238  13.442 -11.588  1.00 17.47     0.142 A 
HETATM    9  C6  BTN A 300       4.255  14.211 -12.904  1.00 17.06     0.084 C 
ENDROOT
BRANCH   3  10
HETATM   10  C7  BTN A 300       8.017  13.830 -11.634  1.00 18.33     0.013 C 
BRANCH  10  11
HETATM   11  C8  BTN A 300       9.307  13.669 -12.437  1.00 19.24     0.002 C 
BRANCH  11  12
HETATM   12  C9  BTN A 300       9.663  14.820 -13.289  1.00 20.09     0.011 C 
BRANCH  12  13
HETATM   13  C10 BTN A 300       9.834  16.154 -12.483  1.00 20.77     0.098 C 
BRANCH  13  14
HETATM   14  C11 BTN A 300       9.115  17.277 -13.142  1.00 21.57     0.185 C 
HETATM   15  O11 BTN A 300       8.342  18.061 -12.573  1.00 21.65    -0.647 OA
HETATM   16  O12 BTN A 300       8.926  17.096 -14.435  1.00 22.67    -0.647 OA
ENDBRANCH  13  14
ENDBRANCH  12  13
ENDBRANCH  11  12
ENDBRANCH  10  11
ENDBRANCH   3  10
TORSDOF 5
ENDMDL
MODEL 7
REMARK VINA RESULT:    -3.481      9.251     12.226
REMARK INTER + INTRA:          -4.737
REMARK INTER:                  -4.340
REMARK INTRA:                  -0.397
REMARK UNBOUND:                -0.239
REMARK  5 active torsions:
REMARK  status: ('A' for Active; 'I' for Inactive)
REMARK    1  A    between atoms: C2_3  and  C7_10 
REMARK    2  A    between atoms: C7_10  and  C8_11 
REMARK    3  A    between atoms: C8_11  and  C9_12 
REMARK    4  A    between atoms: C9_12  and  C10_13 
REMARK    5  A    between atoms: C10_13  and  C11_14 
ROOT
HETATM    1  N1  BTN A 300      23.908  11.860 -12.862  1.00 17.73    -0.217 NA
HETATM    2  S1  BTN A 300      21.912  12.452 -15.444  1.00 16.59    -0.137 SA
HETATM    3  C2  BTN A 300      21.756  14.016 -14.489  1.00 17.74     0.072 C 
HETATM    4  N2  BTN A 300      22.227  13.099 -12.221  1.00 17.92    -0.217 NA
HETATM    5  C3  BTN A 300      22.902  11.951 -11.985  1.00 17.95     0.360 A 
HETATM    6  O3  BTN A 300      22.582  11.155 -11.077  1.00 17.93    -0.243 OA
HETATM    7  C4  BTN A 300      22.783  13.853 -13.343  1.00 17.65     0.141 A 
HETATM    8  C5  BTN A 300      23.958  12.989 -13.790  1.00 17.47     0.142 A 
HETATM    9  C6  BTN A 300      23.728  12.571 -15.238  1.00 17.06     0.084 C 
ENDROOT
BRANCH   3  10
HETATM   10  C7  BTN A 300      20.454  14.450 -13.948  1.00 18.33     0.013 C 
BRANCH  10  11
HETATM   11  C8  BTN A 300      20.096  15.910 -13.676  1.00 19.24     0.002 C 
BRANCH  11  12
HETATM   12  C9  BTN A 300      20.135  16.311 -12.256  1.00 20.09     0.011 C 
BRANCH  12  13
HETATM   13  C10 BTN A 300      18.797  16.962 -11.762  1.00 20.77     0.098 C 
BRANCH  13  14
HETATM   14  C11 BTN A 300      17.622  16.128 -12.133  1.00 21.57     0.185 C 
HETATM   15  O11 BTN A 300      16.689  16.495 -12.859  1.00 21.65    -0.647 OA
HETATM   16  O12 BTN A 300      17.352  15.180 -11.257  1.00 22.67    -0.647 OA
ENDBRANCH  13  14
ENDBRANCH  12  13
ENDBRANCH  11  12
ENDBRANCH  10  11
ENDBRANCH   3  10
TORSDOF 5
ENDMDL
MODEL 8
REMARK VINA RESULT:    -3.451      8.652     11.103
REMARK INTER + INTRA:          -4.698
REMARK INTER:                  -4.463
REMARK INTRA:                  -0.235
REMARK UNBOUND:                -0.239
REMARK  5 active torsions:
REMARK  status: ('A' for Active; 'I' for Inactive)
REMARK    1  A    between atoms: C2_3  and  C7_10 
REMARK    2  A    between atoms: C7_10  and  C8_11 
REMARK    3  A    between atoms: C8_11  and  C9_12 
REMARK    4  A    between atoms: C9_12  and  C10_13 
REMARK    5  A    between atoms: C10_13  and  C11_14 
ROOT
HETATM    1  N1  BTN A 300      17.895  16.788 -12.353  1.00 17.73    -0.217 NA
HETATM    2  S1  BTN A 300      21.144  16.120 -12.393  1.00 16.59    -0.137 SA
HETATM    3  C2  BTN A 300      20.428  14.508 -12.915  1.00 17.74     0.072 C 
HETATM    4  N2  BTN A 300      18.223  14.709 -11.770  1.00 17.92    -0.217 NA
HETATM    5  C3  BTN A 300      17.658  15.879 -11.400  1.00 17.95     0.360 A 
HETATM    6  O3  BTN A 300      17.029  16.016 -10.329  1.00 17.93    -0.243 OA
HETATM    7  C4  BTN A 300      18.915  14.804 -13.054  1.00 17.65     0.141 A 
HETATM    8  C5  BTN A 300      18.684  16.255 -13.463  1.00 17.47     0.142 A 
HETATM    9  C6  BTN A 300      20.040  16.940 -13.602  1.00 17.06     0.084 C 
ENDROOT
BRANCH   3  10
HETATM   10  C7  BTN A 300      20.636  13.288 -12.112  1.00 18.33     0.013 C 
BRANCH  10  11
HETATM   11  C8  BTN A 300      21.945  12.502 -12.093  1.00 19.24     0.002 C 
BRANCH  11  12
HETATM   12  C9  BTN A 300      22.702  12.514 -13.360  1.00 20.09     0.011 C 
BRANCH  12  13
HETATM   13  C10 BTN A 300      23.801  11.398 -13.433  1.00 20.77     0.098 C 
BRANCH  13  14
HETATM   14  C11 BTN A 300      23.716  10.640 -14.710  1.00 21.57     0.185 C 
HETATM   15  O11 BTN A 300      24.682  10.168 -15.325  1.00 21.65    -0.647 OA
HETATM   16  O12 BTN A 300      22.645  10.930 -15.424  1.00 22.67    -0.647 OA
ENDBRANCH  13  14
ENDBRANCH  12  13
ENDBRANCH  11  12
ENDBRANCH  10  11
ENDBRANCH   3  10
TORSDOF 5
ENDMDL
MODEL 9
REMARK VINA RESULT:    -3.408      9.661     12.463
REMARK INTER + INTRA:          -4.642
REMARK INTER:                  -4.288
REMARK INTRA:                  -0.354
REMARK UNBOUND:                -0.239
REMARK  5 active torsions:
REMARK  status: ('A' for Active; 'I' for Inactive)
REMARK    1  A    between atoms: C2_3  and  C7_10 
REMARK    2  A    between atoms: C7_10  and  C8_11 
REMARK    3  A    between atoms: C8_11  and  C9_12 
REMARK    4  A    between atoms: C9_12  and  C10_13 
REMARK    5  A    between atoms: C10_13  and  C11_14 
ROOT
HETATM    1  N1  BTN A 300      23.629  11.417 -12.361  1.00 17.73    -0.217 NA
HETATM    2  S1  BTN A 300      23.628  14.655 -11.641  1.00 16.59    -0.137 SA
HETATM    3  C2  BTN A 300      21.959  14.440 -12.385  1.00 17.74     0.072 C 
HETATM    4  N2  BTN A 300      22.474  12.502 -13.864  1.00 17.92    -0.217 NA
HETATM    5  C3  BTN A 300      23.502  11.646 -13.673  1.00 17.95     0.360 A 
HETATM    6  O3  BTN A 300      24.179  11.183 -14.616  1.00 17.93    -0.243 OA
HETATM    7  C4  BTN A 300      21.849  12.913 -12.608  1.00 17.65     0.141 A 
HETATM    8  C5  BTN A 300      22.654  12.154 -11.559  1.00 17.47     0.142 A 
HETATM    9  C6  BTN A 300      23.306  13.166 -10.624  1.00 17.06     0.084 C 
ENDROOT
BRANCH   3  10
HETATM   10  C7  BTN A 300      21.575  15.163 -13.612  1.00 18.33     0.013 C 
BRANCH  10  11
HETATM   11  C8  BTN A 300      20.212  15.019 -14.286  1.00 19.24     0.002 C 
BRANCH  11  12
HETATM   12  C9  BTN A 300      19.354  16.218 -14.227  1.00 20.09     0.011 C 
BRANCH  12  13
HETATM   13  C10 BTN A 300      17.999  15.971 -13.475  1.00 20.77     0.098 C 
BRANCH  13  14
HETATM   14  C11 BTN A 300      18.206  15.888 -12.005  1.00 21.57     0.185 C 
HETATM   15  O11 BTN A 300      19.025  16.558 -11.361  1.00 21.65    -0.647 OA
HETATM   16  O12 BTN A 300      17.859  14.725 -11.489  1.00 22.67    -0.647 OA
ENDBRANCH  13  14
ENDBRANCH  12  13
ENDBRANCH  11  12
ENDBRANCH  10  11
ENDBRANCH   3  10
TORSDOF 5
ENDMDL
