MODEL 1
REMARK VINA RESULT:    -4.036      0.000      0.000
REMARK INTER + INTRA:          -5.404
REMARK INTER:                  -5.216
REMARK INTRA:                  -0.188
REMARK UNBOUND:                -0.188
REMARK  5 active torsions:
REMARK  status: ('A' for Active; 'I' for Inactive)
REMARK    1  A    between atoms: C2_3  and  C7_10 
REMARK    2  A    between atoms: C7_10  and  C8_11 
REMARK    3  A    between atoms: C8_11  and  C9_12 
REMARK    4  A    between atoms: C9_12  and  C10_13 
REMARK    5  A    between atoms: C10_13  and  C11_14 
ROOT
HETATM    1  N1  BTN A 300      19.515  -9.934  -3.296  1.00 17.73    -0.217 NA
HETATM    2  S1  BTN A 300      19.738  -9.952  -6.605  1.00 16.59    -0.137 SA
HETATM    3  C2  BTN A 300      21.399  -9.326  -6.125  1.00 17.74     0.072 C 
HETATM    4  N2  BTN A 300      20.772  -8.274  -3.955  1.00 17.92    -0.217 NA
HETATM    5  C3  BTN A 300      19.681  -8.608  -3.231  1.00 17.95     0.360 A 
HETATM    6  O3  BTN A 300      18.989  -7.762  -2.624  1.00 17.93    -0.243 OA
HETATM    7  C4  BTN A 300      21.403  -9.435  -4.581  1.00 17.65     0.141 A 
HETATM    8  C5  BTN A 300      20.526 -10.594  -4.119  1.00 17.47     0.142 A 
HETATM    9  C6  BTN A 300      19.932 -11.271  -5.350  1.00 17.06     0.084 C 
ENDROOT
BRANCH   3  10
HETATM   10  C7  BTN A 300      21.858  -7.988  -6.542  1.00 18.33     0.013 C 
BRANCH  10  11
HETATM   11  C8  BTN A 300      22.069  -7.583  -8.000  1.00 19.24     0.002 C 
BRANCH  11  12
HETATM   12  C9  BTN A 300      23.181  -6.643  -8.235  1.00 20.09     0.011 C 
BRANCH  12  13
HETATM   13  C10 BTN A 300      24.589  -7.265  -7.933  1.00 20.77     0.098 C 
BRANCH  13  14
HETATM   14  C11 BTN A 300      25.679  -6.294  -8.217  1.00 21.57     0.185 C 
HETATM   15  O11 BTN A 300      25.997  -5.887  -9.342  1.00 21.65    -0.647 OA
HETATM   16  O12 BTN A 300      26.622  -6.276  -7.294  1.00 22.67    -0.647 OA
ENDBRANCH  13  14
ENDBRANCH  12  13
ENDBRANCH  11  12
ENDBRANCH  10  11
ENDBRANCH   3  10
TORSDOF 5
ENDMDL
MODEL 2
REMARK VINA RESULT:    -3.969     21.174     22.363
REMARK INTER + INTRA:          -5.318
REMARK INTER:                  -4.939
REMARK INTRA:                  -0.379
REMARK UNBOUND:                -0.188
REMARK  5 active torsions:
REMARK  status: ('A' for Active; 'I' for Inactive)
REMARK    1  A    between atoms: C2_3  and  C7_10 
REMARK    2  A    between atoms: C7_10  and  C8_11 
REMARK    3  A    between atoms: C8_11  and  C9_12 
REMARK    4  A    between atoms: C9_12  and  C10_13 
REMARK    5  A    between atoms: C10_13  and  C11_14 
ROOT
HETATM    1  N1  BTN A 300      21.322  -2.115  15.873  1.00 17.73    -0.217 NA
HETATM    2  S1  BTN A 300      22.228   0.911  16.885  1.00 16.59    -0.137 SA
HETATM    3  C2  BTN A 300      21.294   1.297  15.348  1.00 17.74     0.072 C 
HETATM    4  N2  BTN A 300      21.695  -0.844  14.137  1.00 17.92    -0.217 NA
HETATM    5  C3  BTN A 300      22.019  -2.011  14.736  1.00 17.95     0.360 A 
HETATM    6  O3  BTN A 300      22.842  -2.814  14.247  1.00 17.93    -0.243 OA
HETATM    7  C4  BTN A 300      20.722  -0.072  14.909  1.00 17.65     0.141 A 
HETATM    8  C5  BTN A 300      20.460  -0.961  16.120  1.00 17.47     0.142 A 
HETATM    9  C6  BTN A 300      20.852  -0.193  17.377  1.00 17.06     0.084 C 
ENDROOT
BRANCH   3  10
HETATM   10  C7  BTN A 300      21.950   1.964  14.207  1.00 18.33     0.013 C 
BRANCH  10  11
HETATM   11  C8  BTN A 300      23.072   2.989  14.358  1.00 19.24     0.002 C 
BRANCH  11  12
HETATM   12  C9  BTN A 300      24.412   2.514  13.962  1.00 20.09     0.011 C 
BRANCH  12  13
HETATM   13  C10 BTN A 300      24.371   1.245  13.042  1.00 20.77     0.098 C 
BRANCH  13  14
HETATM   14  C11 BTN A 300      25.494   1.248  12.068  1.00 21.57     0.185 C 
HETATM   15  O11 BTN A 300      26.181   0.262  11.769  1.00 21.65    -0.647 OA
HETATM   16  O12 BTN A 300      26.062   2.430  11.922  1.00 22.67    -0.647 OA
ENDBRANCH  13  14
ENDBRANCH  12  13
ENDBRANCH  11  12
ENDBRANCH  10  11
ENDBRANCH   3  10
TORSDOF 5
ENDMDL
MODEL 3
REMARK VINA RESULT:    -3.957     21.724     23.611
REMARK INTER + INTRA:          -5.302
REMARK INTER:                  -4.600
REMARK INTRA:                  -0.702
REMARK UNBOUND:                -0.188
REMARK  5 active torsions:
REMARK  status: ('A' for Active; 'I' for Inactive)
REMARK    1  A    between atoms: C2_3  and  C7_10 
REMARK    2  A    between atoms: C7_10  and  C8_11 
REMARK    3  A    between atoms: C8_11  and  C9_12 
REMARK    4  A    between atoms: C9_12  and  C10_13 
REMARK    5  A    between atoms: C10_13  and  C11_14 
ROOT
HETATM    1  N1  BTN A 300      21.916  -1.293  18.501  1.00 17.73    -0.217 NA
HETATM    2  S1  BTN A 300      22.637   1.672  17.200  1.00 16.59    -0.137 SA
HETATM    3  C2  BTN A 300      21.047   1.276  16.363  1.00 17.74     0.072 C 
HETATM    4  N2  BTN A 300      21.214  -1.209  16.435  1.00 17.92    -0.217 NA
HETATM    5  C3  BTN A 300      21.978  -1.899  17.310  1.00 17.95     0.360 A 
HETATM    6  O3  BTN A 300      22.610  -2.928  16.989  1.00 17.93    -0.243 OA
HETATM    7  C4  BTN A 300      20.589  -0.036  17.043  1.00 17.65     0.141 A 
HETATM    8  C5  BTN A 300      21.076  -0.096  18.486  1.00 17.47     0.142 A 
HETATM    9  C6  BTN A 300      21.862   1.176  18.784  1.00 17.06     0.084 C 
ENDROOT
BRANCH   3  10
HETATM   10  C7  BTN A 300      20.973   1.142  14.896  1.00 18.33     0.013 C 
BRANCH  10  11
HETATM   11  C8  BTN A 300      21.887   1.896  13.932  1.00 19.24     0.002 C 
BRANCH  11  12
HETATM   12  C9  BTN A 300      23.081   1.151  13.488  1.00 20.09     0.011 C 
BRANCH  12  13
HETATM   13  C10 BTN A 300      22.800  -0.371  13.234  1.00 20.77     0.098 C 
BRANCH  13  14
HETATM   14  C11 BTN A 300      23.794  -1.227  13.935  1.00 21.57     0.185 C 
HETATM   15  O11 BTN A 300      23.776  -2.465  13.961  1.00 21.65    -0.647 OA
HETATM   16  O12 BTN A 300      24.389  -0.623  14.945  1.00 22.67    -0.647 OA
ENDBRANCH  13  14
ENDBRANCH  12  13
ENDBRANCH  11  12
ENDBRANCH  10  11
ENDBRANCH   3  10
TORSDOF 5
ENDMDL
MODEL 4
REMARK VINA RESULT:    -3.956     13.839     15.093
REMARK INTER + INTRA:          -5.301
REMARK INTER:                  -5.095
REMARK INTRA:                  -0.206
REMARK UNBOUND:                -0.188
REMARK  5 active torsions:
REMARK  status: ('A' for Active; 'I' for Inactive)
REMARK    1  A    between atoms: C2_3  and  C7_10 
REMARK    2  A    between atoms: C7_10  and  C8_11 
REMARK    3  A    between atoms: C8_11  and  C9_12 
REMARK    4  A    between atoms: C9_12  and  C10_13 
REMARK    5  A    between atoms: C10_13  and  C11_14 
ROOT
HETATM    1  N1  BTN A 300      28.002  -1.401   9.371  1.00 17.73    -0.217 NA
HETATM    2  S1  BTN A 300      29.858  -2.503   6.852  1.00 16.59    -0.137 SA
HETATM    3  C2  BTN A 300      28.161  -2.648   6.155  1.00 17.74     0.072 C 
HETATM    4  N2  BTN A 300      26.921  -2.963   8.293  1.00 17.92    -0.217 NA
HETATM    5  C3  BTN A 300      27.378  -2.576   9.506  1.00 17.95     0.360 A 
HETATM    6  O3  BTN A 300      27.204  -3.257  10.540  1.00 17.93    -0.243 OA
HETATM    7  C4  BTN A 300      27.261  -2.009   7.239  1.00 17.65     0.141 A 
HETATM    8  C5  BTN A 300      28.013  -0.917   7.992  1.00 17.47     0.142 A 
HETATM    9  C6  BTN A 300      29.422  -0.816   7.416  1.00 17.06     0.084 C 
ENDROOT
BRANCH   3  10
HETATM   10  C7  BTN A 300      27.617  -3.957   5.747  1.00 18.33     0.013 C 
BRANCH  10  11
HETATM   11  C8  BTN A 300      28.328  -4.905   4.785  1.00 19.24     0.002 C 
BRANCH  11  12
HETATM   12  C9  BTN A 300      27.644  -6.191   4.551  1.00 20.09     0.011 C 
BRANCH  12  13
HETATM   13  C10 BTN A 300      26.120  -6.028   4.216  1.00 20.77     0.098 C 
BRANCH  13  14
HETATM   14  C11 BTN A 300      25.682  -7.024   3.202  1.00 21.57     0.185 C 
HETATM   15  O11 BTN A 300      24.799  -7.875   3.374  1.00 21.65    -0.647 OA
HETATM   16  O12 BTN A 300      26.607  -7.305   2.305  1.00 22.67    -0.647 OA
ENDBRANCH  13  14
ENDBRANCH  12  13
ENDBRANCH  11  12
ENDBRANCH  10  11
ENDBRANCH   3  10
TORSDOF 5
ENDMDL
MODEL 5
REMARK VINA RESULT:    -3.893     21.895     22.830
REMARK INTER + INTRA:          -5.220
REMARK INTER:                  -4.887
REMARK INTRA:                  -0.333
REMARK UNBOUND:                -0.188
REMARK  5 active torsions:
REMARK  status: ('A' for Active; 'I' for Inactive)
REMARK    1  A    between atoms: C2_3  and  C7_10 
REMARK    2  A    between atoms: C7_10  and  C8_11 
REMARK    3  A    between atoms: C8_11  and  C9_12 
REMARK    4  A    between atoms: C9_12  and  C10_13 
REMARK    5  A    between atoms: C10_13  and  C11_14 
ROOT
HETATM    1  N1  BTN A 300      20.626  -1.732  16.258  1.00 17.73    -0.217 NA
HETATM    2  S1  BTN A 300      20.137  -0.517  13.210  1.00 16.59    -0.137 SA
HETATM    3  C2  BTN A 300      21.959  -0.337  13.394  1.00 17.74     0.072 C 
HETATM    4  N2  BTN A 300      22.048  -0.120  15.875  1.00 17.92    -0.217 NA
HETATM    5  C3  BTN A 300      21.088  -0.563  16.716  1.00 17.95     0.360 A 
HETATM    6  O3  BTN A 300      20.742   0.068  17.738  1.00 17.93    -0.243 OA
HETATM    7  C4  BTN A 300      22.263  -1.024  14.747  1.00 17.65     0.141 A 
HETATM    8  C5  BTN A 300      21.271  -2.151  15.015  1.00 17.47     0.142 A 
HETATM    9  C6  BTN A 300      20.298  -2.228  13.844  1.00 17.06     0.084 C 
ENDROOT
BRANCH   3  10
HETATM   10  C7  BTN A 300      22.600   0.990  13.342  1.00 18.33     0.013 C 
BRANCH  10  11
HETATM   11  C8  BTN A 300      24.110   1.195  13.240  1.00 19.24     0.002 C 
BRANCH  11  12
HETATM   12  C9  BTN A 300      24.617   2.437  13.855  1.00 20.09     0.011 C 
BRANCH  12  13
HETATM   13  C10 BTN A 300      23.509   3.248  14.612  1.00 20.77     0.098 C 
BRANCH  13  14
HETATM   14  C11 BTN A 300      23.992   4.606  14.981  1.00 21.57     0.185 C 
HETATM   15  O11 BTN A 300      23.268   5.591  15.178  1.00 21.65    -0.647 OA
HETATM   16  O12 BTN A 300      25.228   4.850  14.589  1.00 22.67    -0.647 OA
ENDBRANCH  13  14
ENDBRANCH  12  13
ENDBRANCH  11  12
ENDBRANCH  10  11
ENDBRANCH   3  10
TORSDOF 5
ENDMDL
MODEL 6
REMARK VINA RESULT:    -3.778     21.161     22.393
REMARK INTER + INTRA:          -5.070
REMARK INTER:                  -4.923
REMARK INTRA:                  -0.148
REMARK UNBOUND:                -0.188
REMARK  5 active torsions:
REMARK  status: ('A' for Active; 'I' for Inactive)
REMARK    1  A    between atoms: C2_3  and  C7_10 
REMARK    2  A    between atoms: C7_10  and  C8_11 
REMARK    3  A    between atoms: C8_11  and  C9_12 
REMARK    4  A    between atoms: C9_12  and  C10_13 
REMARK    5  A    between atoms: C10_13  and  C11_14 
ROOT
HETATM    1  N1  BTN A 300      20.136  -3.214  15.198  1.00 17.73    -0.217 NA
HETATM    2  S1  BTN A 300      23.282  -2.434  14.490  1.00 16.59    -0.137 SA
HETATM    3  C2  BTN A 300      22.514  -0.770  14.651  1.00 17.74     0.072 C 
HETATM    4  N2  BTN A 300      20.187  -1.385  14.005  1.00 17.92    -0.217 NA
HETATM    5  C3  BTN A 300      19.677  -2.634  14.083  1.00 17.95     0.360 A 
HETATM    6  O3  BTN A 300      18.906  -3.103  13.218  1.00 17.93    -0.243 OA
HETATM    7  C4  BTN A 300      21.072  -1.073  15.126  1.00 17.65     0.141 A 
HETATM    8  C5  BTN A 300      21.035  -2.349  15.960  1.00 17.47     0.142 A 
HETATM    9  C6  BTN A 300      22.451  -2.908  16.052  1.00 17.06     0.084 C 
ENDROOT
BRANCH   3  10
HETATM   10  C7  BTN A 300      22.489   0.169  13.514  1.00 18.33     0.013 C 
BRANCH  10  11
HETATM   11  C8  BTN A 300      21.758   1.510  13.541  1.00 19.24     0.002 C 
BRANCH  11  12
HETATM   12  C9  BTN A 300      22.303   2.503  14.487  1.00 20.09     0.011 C 
BRANCH  12  13
HETATM   13  C10 BTN A 300      23.828   2.792  14.267  1.00 20.77     0.098 C 
BRANCH  13  14
HETATM   14  C11 BTN A 300      24.218   4.103  14.852  1.00 21.57     0.185 C 
HETATM   15  O11 BTN A 300      23.466   5.078  14.981  1.00 21.65    -0.647 OA
HETATM   16  O12 BTN A 300      25.508   4.361  14.754  1.00 22.67    -0.647 OA
ENDBRANCH  13  14
ENDBRANCH  12  13
ENDBRANCH  11  12
ENDBRANCH  10  11
ENDBRANCH   3  10
TORSDOF 5
ENDMDL
MODEL 7
REMARK VINA RESULT:    -3.775     21.579     23.166
REMARK INTER + INTRA:          -5.066
REMARK INTER:                  -4.681
REMARK INTRA:                  -0.385
REMARK UNBOUND:                -0.188
REMARK  5 active torsions:
REMARK  status: ('A' for Active; 'I' for Inactive)
REMARK    1  A    between atoms: C2_3  and  C7_10 
REMARK    2  A    between atoms: C7_10  and  C8_11 
REMARK    3  A    between atoms: C8_11  and  C9_12 
REMARK    4  A    between atoms: C9_12  and  C10_13 
REMARK    5  A    between atoms: C10_13  and  C11_14 
ROOT
HETATM    1  N1  BTN A 300      22.979   3.343  16.150  1.00 17.73    -0.217 NA
HETATM    2  S1  BTN A 300      24.622   1.158  14.272  1.00 16.59    -0.137 SA
HETATM    3  C2  BTN A 300      22.967   1.166  13.470  1.00 17.74     0.072 C 
HETATM    4  N2  BTN A 300      21.606   1.790  15.462  1.00 17.92    -0.217 NA
HETATM    5  C3  BTN A 300      22.093   2.425  16.551  1.00 17.95     0.360 A 
HETATM    6  O3  BTN A 300      21.727   2.147  17.713  1.00 17.93    -0.243 OA
HETATM    7  C4  BTN A 300      22.199   2.281  14.219  1.00 17.65     0.141 A 
HETATM    8  C5  BTN A 300      23.155   3.367  14.699  1.00 17.47     0.142 A 
HETATM    9  C6  BTN A 300      24.570   2.989  14.272  1.00 17.06     0.084 C 
ENDROOT
BRANCH   3  10
HETATM   10  C7  BTN A 300      22.148  -0.059  13.402  1.00 18.33     0.013 C 
BRANCH  10  11
HETATM   11  C8  BTN A 300      22.653  -1.437  13.827  1.00 19.24     0.002 C 
BRANCH  11  12
HETATM   12  C9  BTN A 300      21.965  -2.026  14.991  1.00 20.09     0.011 C 
BRANCH  12  13
HETATM   13  C10 BTN A 300      20.404  -1.893  14.919  1.00 20.77     0.098 C 
BRANCH  13  14
HETATM   14  C11 BTN A 300      19.799  -3.038  14.189  1.00 21.57     0.185 C 
HETATM   15  O11 BTN A 300      18.876  -2.952  13.366  1.00 21.65    -0.647 OA
HETATM   16  O12 BTN A 300      19.923  -4.190  14.819  1.00 22.67    -0.647 OA
ENDBRANCH  13  14
ENDBRANCH  12  13
ENDBRANCH  11  12
ENDBRANCH  10  11
ENDBRANCH   3  10
TORSDOF 5
ENDMDL
MODEL 8
REMARK VINA RESULT:    -3.727     21.550     22.598
REMARK INTER + INTRA:          -5.004
REMARK INTER:                  -4.724
REMARK INTRA:                  -0.280
REMARK UNBOUND:                -0.188
REMARK  5 active torsions:
REMARK  status: ('A' for Active; 'I' for Inactive)
REMARK    1  A    between atoms: C2_3  and  C7_10 
REMARK    2  A    between atoms: C7_10  and  C8_11 
REMARK    3  A    between atoms: C8_11  and  C9_12 
REMARK    4  A    between atoms: C9_12  and  C10_13 
REMARK    5  A    between atoms: C10_13  and  C11_14 
ROOT
HETATM    1  N1  BTN A 300      20.524  -0.361  16.903  1.00 17.73    -0.217 NA
HETATM    2  S1  BTN A 300      23.061   1.562  15.971  1.00 16.59    -0.137 SA
HETATM    3  C2  BTN A 300      22.051   1.508  14.434  1.00 17.74     0.072 C 
HETATM    4  N2  BTN A 300      20.969  -0.707  14.793  1.00 17.92    -0.217 NA
HETATM    5  C3  BTN A 300      20.824  -1.300  15.999  1.00 17.95     0.360 A 
HETATM    6  O3  BTN A 300      20.960  -2.531  16.166  1.00 17.93    -0.243 OA
HETATM    7  C4  BTN A 300      20.777   0.740  14.856  1.00 17.65     0.141 A 
HETATM    8  C5  BTN A 300      20.463   0.982  16.329  1.00 17.47     0.142 A 
HETATM    9  C6  BTN A 300      21.525   1.915  16.902  1.00 17.06     0.084 C 
ENDROOT
BRANCH   3  10
HETATM   10  C7  BTN A 300      22.596   0.943  13.185  1.00 18.33     0.013 C 
BRANCH  10  11
HETATM   11  C8  BTN A 300      23.995   0.340  13.070  1.00 19.24     0.002 C 
BRANCH  11  12
HETATM   12  C9  BTN A 300      24.978   1.170  12.346  1.00 20.09     0.011 C 
BRANCH  12  13
HETATM   13  C10 BTN A 300      25.897   2.010  13.299  1.00 20.77     0.098 C 
BRANCH  13  14
HETATM   14  C11 BTN A 300      27.062   2.572  12.565  1.00 21.57     0.185 C 
HETATM   15  O11 BTN A 300      28.250   2.377  12.857  1.00 21.65    -0.647 OA
HETATM   16  O12 BTN A 300      26.789   3.688  11.918  1.00 22.67    -0.647 OA
ENDBRANCH  13  14
ENDBRANCH  12  13
ENDBRANCH  11  12
ENDBRANCH  10  11
ENDBRANCH   3  10
TORSDOF 5
ENDMDL
MODEL 9
REMARK VINA RESULT:    -3.657     20.266     21.791
REMARK INTER + INTRA:          -4.914
REMARK INTER:                  -4.431
REMARK INTRA:                  -0.483
REMARK UNBOUND:                -0.188
REMARK  5 active torsions:
REMARK  status: ('A' for Active; 'I' for Inactive)
REMARK    1  A    between atoms: C2_3  and  C7_10 
REMARK    2  A    between atoms: C7_10  and  C8_11 
REMARK    3  A    between atoms: C8_11  and  C9_12 
REMARK    4  A    between atoms: C9_12  and  C10_13 
REMARK    5  A    between atoms: C10_13  and  C11_14 
ROOT
HETATM    1  N1  BTN A 300      26.011  -2.520  13.235  1.00 17.73    -0.217 NA
HETATM    2  S1  BTN A 300      25.172  -0.331  15.581  1.00 16.59    -0.137 SA
HETATM    3  C2  BTN A 300      23.720  -0.243  14.455  1.00 17.74     0.072 C 
HETATM    4  N2  BTN A 300      24.867  -0.889  12.340  1.00 17.92    -0.217 NA
HETATM    5  C3  BTN A 300      26.025  -1.584  12.279  1.00 17.95     0.360 A 
HETATM    6  O3  BTN A 300      26.917  -1.337  11.440  1.00 17.93    -0.243 OA
HETATM    7  C4  BTN A 300      23.992  -1.355  13.414  1.00 17.65     0.141 A 
HETATM    8  C5  BTN A 300      24.789  -2.496  14.037  1.00 17.47     0.142 A 
HETATM    9  C6  BTN A 300      25.054  -2.157  15.500  1.00 17.06     0.084 C 
ENDROOT
BRANCH   3  10
HETATM   10  C7  BTN A 300      23.361   1.015  13.774  1.00 18.33     0.013 C 
BRANCH  10  11
HETATM   11  C8  BTN A 300      21.926   1.517  13.627  1.00 19.24     0.002 C 
BRANCH  11  12
HETATM   12  C9  BTN A 300      20.895   0.659  14.243  1.00 20.09     0.011 C 
BRANCH  12  13
HETATM   13  C10 BTN A 300      20.151  -0.254  13.207  1.00 20.77     0.098 C 
BRANCH  13  14
HETATM   14  C11 BTN A 300      20.060  -1.656  13.693  1.00 21.57     0.185 C 
HETATM   15  O11 BTN A 300      19.237  -2.495  13.300  1.00 21.65    -0.647 OA
HETATM   16  O12 BTN A 300      20.539  -1.825  14.910  1.00 22.67    -0.647 OA
ENDBRANCH  13  14
ENDBRANCH  12  13
ENDBRANCH  11  12
ENDBRANCH  10  11
ENDBRANCH   3  10
TORSDOF 5
ENDMDL
