MODEL 1
REMARK VINA RESULT:    -4.025      0.000      0.000
REMARK INTER + INTRA:          -5.454
REMARK INTER:                  -5.201
REMARK INTRA:                  -0.253
REMARK UNBOUND:                -0.253
REMARK  5 active torsions:
REMARK  status: ('A' for Active; 'I' for Inactive)
REMARK    1  A    between atoms: C2_3  and  C7_10 
REMARK    2  A    between atoms: C7_10  and  C8_11 
REMARK    3  A    between atoms: C8_11  and  C9_12 
REMARK    4  A    between atoms: C9_12  and  C10_13 
REMARK    5  A    between atoms: C10_13  and  C11_14 
ROOT
HETATM    1  N1  BTN A 300      12.273   8.983  10.331  1.00 17.73    -0.217 NA
HETATM    2  S1  BTN A 300       9.830   9.701   8.205  1.00 16.59    -0.137 SA
HETATM    3  C2  BTN A 300      11.241   9.401   7.062  1.00 17.74     0.072 C 
HETATM    4  N2  BTN A 300      13.092  10.039   8.603  1.00 17.92    -0.217 NA
HETATM    5  C3  BTN A 300      12.997  10.042   9.952  1.00 17.95     0.360 A 
HETATM    6  O3  BTN A 300      13.528  10.922  10.663  1.00 17.93    -0.243 OA
HETATM    7  C4  BTN A 300      12.376   8.919   7.996  1.00 17.65     0.141 A 
HETATM    8  C5  BTN A 300      11.807   8.180   9.202  1.00 17.47     0.142 A 
HETATM    9  C6  BTN A 300      10.287   8.160   9.084  1.00 17.06     0.084 C 
ENDROOT
BRANCH   3  10
HETATM   10  C7  BTN A 300      11.734  10.466   6.168  1.00 18.33     0.013 C 
BRANCH  10  11
HETATM   11  C8  BTN A 300      11.636  10.404   4.646  1.00 19.24     0.002 C 
BRANCH  11  12
HETATM   12  C9  BTN A 300      10.269  10.508   4.101  1.00 20.09     0.011 C 
BRANCH  12  13
HETATM   13  C10 BTN A 300       9.766   9.180   3.435  1.00 20.77     0.098 C 
BRANCH  13  14
HETATM   14  C11 BTN A 300      10.084   9.152   1.982  1.00 21.57     0.185 C 
HETATM   15  O11 BTN A 300      10.543  10.102   1.334  1.00 21.65    -0.647 OA
HETATM   16  O12 BTN A 300       9.386   8.259   1.308  1.00 22.67    -0.647 OA
ENDBRANCH  13  14
ENDBRANCH  12  13
ENDBRANCH  11  12
ENDBRANCH  10  11
ENDBRANCH   3  10
TORSDOF 5
ENDMDL
MODEL 2
REMARK VINA RESULT:    -3.997      1.490      1.624
REMARK INTER + INTRA:          -5.418
REMARK INTER:                  -5.151
REMARK INTRA:                  -0.267
REMARK UNBOUND:                -0.253
REMARK  5 active torsions:
REMARK  status: ('A' for Active; 'I' for Inactive)
REMARK    1  A    between atoms: C2_3  and  C7_10 
REMARK    2  A    between atoms: C7_10  and  C8_11 
REMARK    3  A    between atoms: C8_11  and  C9_12 
REMARK    4  A    between atoms: C9_12  and  C10_13 
REMARK    5  A    between atoms: C10_13  and  C11_14 
ROOT
HETATM    1  N1  BTN A 300      11.734   8.343   9.929  1.00 17.73    -0.217 NA
HETATM    2  S1  BTN A 300       9.547   9.637   7.797  1.00 16.59    -0.137 SA
HETATM    3  C2  BTN A 300      10.967   9.259   6.689  1.00 17.74     0.072 C 
HETATM    4  N2  BTN A 300      12.795   9.448   8.372  1.00 17.92    -0.217 NA
HETATM    5  C3  BTN A 300      12.621   9.319   9.707  1.00 17.95     0.360 A 
HETATM    6  O3  BTN A 300      13.228  10.029  10.537  1.00 17.93    -0.243 OA
HETATM    7  C4  BTN A 300      11.965   8.517   7.609  1.00 17.65     0.141 A 
HETATM    8  C5  BTN A 300      11.226   7.744   8.696  1.00 17.47     0.142 A 
HETATM    9  C6  BTN A 300       9.729   7.960   8.511  1.00 17.06     0.084 C 
ENDROOT
BRANCH   3  10
HETATM   10  C7  BTN A 300      11.658  10.329   5.946  1.00 18.33     0.013 C 
BRANCH  10  11
HETATM   11  C8  BTN A 300      11.028  11.686   5.637  1.00 19.24     0.002 C 
BRANCH  11  12
HETATM   12  C9  BTN A 300      10.911  12.011   4.203  1.00 20.09     0.011 C 
BRANCH  12  13
HETATM   13  C10 BTN A 300      12.105  11.464   3.346  1.00 20.77     0.098 C 
BRANCH  13  14
HETATM   14  C11 BTN A 300      11.686  11.199   1.944  1.00 21.57     0.185 C 
HETATM   15  O11 BTN A 300      12.231  11.670   0.936  1.00 21.65    -0.647 OA
HETATM   16  O12 BTN A 300      10.415  10.866   1.828  1.00 22.67    -0.647 OA
ENDBRANCH  13  14
ENDBRANCH  12  13
ENDBRANCH  11  12
ENDBRANCH  10  11
ENDBRANCH   3  10
TORSDOF 5
ENDMDL
MODEL 3
REMARK VINA RESULT:    -3.927     15.729     17.467
REMARK INTER + INTRA:          -5.327
REMARK INTER:                  -4.682
REMARK INTRA:                  -0.645
REMARK UNBOUND:                -0.253
REMARK  5 active torsions:
REMARK  status: ('A' for Active; 'I' for Inactive)
REMARK    1  A    between atoms: C2_3  and  C7_10 
REMARK    2  A    between atoms: C7_10  and  C8_11 
REMARK    3  A    between atoms: C8_11  and  C9_12 
REMARK    4  A    between atoms: C9_12  and  C10_13 
REMARK    5  A    between atoms: C10_13  and  C11_14 
ROOT
HETATM    1  N1  BTN A 300      22.194   1.210  13.301  1.00 17.73    -0.217 NA
HETATM    2  S1  BTN A 300      22.586  -1.203  15.543  1.00 16.59    -0.137 SA
HETATM    3  C2  BTN A 300      20.870  -0.641  15.898  1.00 17.74     0.072 C 
HETATM    4  N2  BTN A 300      21.097   1.716  15.121  1.00 17.92    -0.217 NA
HETATM    5  C3  BTN A 300      22.033   2.145  14.244  1.00 17.95     0.360 A 
HETATM    6  O3  BTN A 300      22.609   3.247  14.360  1.00 17.93    -0.243 OA
HETATM    7  C4  BTN A 300      20.581   0.391  14.782  1.00 17.65     0.141 A 
HETATM    8  C5  BTN A 300      21.345   0.039  13.510  1.00 17.47     0.142 A 
HETATM    9  C6  BTN A 300      22.149  -1.232  13.764  1.00 17.06     0.084 C 
ENDROOT
BRANCH   3  10
HETATM   10  C7  BTN A 300      20.511  -0.081  17.214  1.00 18.33     0.013 C 
BRANCH  10  11
HETATM   11  C8  BTN A 300      21.310  -0.340  18.490  1.00 19.24     0.002 C 
BRANCH  11  12
HETATM   12  C9  BTN A 300      21.870   0.863  19.134  1.00 20.09     0.011 C 
BRANCH  12  13
HETATM   13  C10 BTN A 300      22.987   1.558  18.281  1.00 20.77     0.098 C 
BRANCH  13  14
HETATM   14  C11 BTN A 300      22.683   2.997  18.064  1.00 21.57     0.185 C 
HETATM   15  O11 BTN A 300      21.547   3.477  17.953  1.00 21.65    -0.647 OA
HETATM   16  O12 BTN A 300      23.664   3.661  17.483  1.00 22.67    -0.647 OA
ENDBRANCH  13  14
ENDBRANCH  12  13
ENDBRANCH  11  12
ENDBRANCH  10  11
ENDBRANCH   3  10
TORSDOF 5
ENDMDL
MODEL 4
REMARK VINA RESULT:    -3.865      2.705      7.007
REMARK INTER + INTRA:          -5.248
REMARK INTER:                  -4.891
REMARK INTRA:                  -0.357
REMARK UNBOUND:                -0.253
REMARK  5 active torsions:
REMARK  status: ('A' for Active; 'I' for Inactive)
REMARK    1  A    between atoms: C2_3  and  C7_10 
REMARK    2  A    between atoms: C7_10  and  C8_11 
REMARK    3  A    between atoms: C8_11  and  C9_12 
REMARK    4  A    between atoms: C9_12  and  C10_13 
REMARK    5  A    between atoms: C10_13  and  C11_14 
ROOT
HETATM    1  N1  BTN A 300      11.037   8.893   6.166  1.00 17.73    -0.217 NA
HETATM    2  S1  BTN A 300      12.807   8.883   8.972  1.00 16.59    -0.137 SA
HETATM    3  C2  BTN A 300      11.758  10.377   9.199  1.00 17.74     0.072 C 
HETATM    4  N2  BTN A 300      11.422  10.948   6.797  1.00 17.92    -0.217 NA
HETATM    5  C3  BTN A 300      11.544  10.068   5.778  1.00 17.95     0.360 A 
HETATM    6  O3  BTN A 300      12.056  10.375   4.680  1.00 17.93    -0.243 OA
HETATM    7  C4  BTN A 300      10.806  10.350   7.980  1.00 17.65     0.141 A 
HETATM    8  C5  BTN A 300      10.535   8.915   7.538  1.00 17.47     0.142 A 
HETATM    9  C6  BTN A 300      11.302   7.973   8.460  1.00 17.06     0.084 C 
ENDROOT
BRANCH   3  10
HETATM   10  C7  BTN A 300      12.362  11.715   9.343  1.00 18.33     0.013 C 
BRANCH  10  11
HETATM   11  C8  BTN A 300      13.860  11.951   9.528  1.00 19.24     0.002 C 
BRANCH  11  12
HETATM   12  C9  BTN A 300      14.213  13.106  10.376  1.00 20.09     0.011 C 
BRANCH  12  13
HETATM   13  C10 BTN A 300      13.737  12.949  11.862  1.00 20.77     0.098 C 
BRANCH  13  14
HETATM   14  C11 BTN A 300      14.338  11.745  12.496  1.00 21.57     0.185 C 
HETATM   15  O11 BTN A 300      13.700  10.810  12.998  1.00 21.65    -0.647 OA
HETATM   16  O12 BTN A 300      15.554  11.948  12.964  1.00 22.67    -0.647 OA
ENDBRANCH  13  14
ENDBRANCH  12  13
ENDBRANCH  11  12
ENDBRANCH  10  11
ENDBRANCH   3  10
TORSDOF 5
ENDMDL
MODEL 5
REMARK VINA RESULT:    -3.802      3.633      6.908
REMARK INTER + INTRA:          -5.166
REMARK INTER:                  -4.887
REMARK INTRA:                  -0.279
REMARK UNBOUND:                -0.253
REMARK  5 active torsions:
REMARK  status: ('A' for Active; 'I' for Inactive)
REMARK    1  A    between atoms: C2_3  and  C7_10 
REMARK    2  A    between atoms: C7_10  and  C8_11 
REMARK    3  A    between atoms: C8_11  and  C9_12 
REMARK    4  A    between atoms: C9_12  and  C10_13 
REMARK    5  A    between atoms: C10_13  and  C11_14 
ROOT
HETATM    1  N1  BTN A 300       7.976   9.401   1.677  1.00 17.73    -0.217 NA
HETATM    2  S1  BTN A 300       9.053  12.134   3.218  1.00 16.59    -0.137 SA
HETATM    3  C2  BTN A 300      10.631  11.394   2.628  1.00 17.74     0.072 C 
HETATM    4  N2  BTN A 300       9.917   9.007   2.597  1.00 17.92    -0.217 NA
HETATM    5  C3  BTN A 300       8.632   8.595   2.518  1.00 17.95     0.360 A 
HETATM    6  O3  BTN A 300       8.200   7.610   3.155  1.00 17.93    -0.243 OA
HETATM    7  C4  BTN A 300      10.176  10.187   1.774  1.00 17.65     0.141 A 
HETATM    8  C5  BTN A 300       8.821  10.461   1.130  1.00 17.47     0.142 A 
HETATM    9  C6  BTN A 300       8.361  11.854   1.545  1.00 17.06     0.084 C 
ENDROOT
BRANCH   3  10
HETATM   10  C7  BTN A 300      11.678  10.978   3.580  1.00 18.33     0.013 C 
BRANCH  10  11
HETATM   11  C8  BTN A 300      11.513  11.039   5.097  1.00 19.24     0.002 C 
BRANCH  11  12
HETATM   12  C9  BTN A 300      11.545   9.733   5.784  1.00 20.09     0.011 C 
BRANCH  12  13
HETATM   13  C10 BTN A 300      11.408   9.851   7.342  1.00 20.77     0.098 C 
BRANCH  13  14
HETATM   14  C11 BTN A 300      11.996   8.669   8.026  1.00 21.57     0.185 C 
HETATM   15  O11 BTN A 300      11.349   7.733   8.515  1.00 21.65    -0.647 OA
HETATM   16  O12 BTN A 300      13.186   8.899   8.545  1.00 22.67    -0.647 OA
ENDBRANCH  13  14
ENDBRANCH  12  13
ENDBRANCH  11  12
ENDBRANCH  10  11
ENDBRANCH   3  10
TORSDOF 5
ENDMDL
MODEL 6
REMARK VINA RESULT:    -3.794     16.137     17.449
REMARK INTER + INTRA:          -5.156
REMARK INTER:                  -4.712
REMARK INTRA:                  -0.444
REMARK UNBOUND:                -0.253
REMARK  5 active torsions:
REMARK  status: ('A' for Active; 'I' for Inactive)
REMARK    1  A    between atoms: C2_3  and  C7_10 
REMARK    2  A    between atoms: C7_10  and  C8_11 
REMARK    3  A    between atoms: C8_11  and  C9_12 
REMARK    4  A    between atoms: C9_12  and  C10_13 
REMARK    5  A    between atoms: C10_13  and  C11_14 
ROOT
HETATM    1  N1  BTN A 300      22.067  -1.550  18.072  1.00 17.73    -0.217 NA
HETATM    2  S1  BTN A 300      22.527   1.616  17.194  1.00 16.59    -0.137 SA
HETATM    3  C2  BTN A 300      20.913   1.240  16.396  1.00 17.74     0.072 C 
HETATM    4  N2  BTN A 300      21.230  -1.212  16.083  1.00 17.92    -0.217 NA
HETATM    5  C3  BTN A 300      22.088  -1.969  16.802  1.00 17.95     0.360 A 
HETATM    6  O3  BTN A 300      22.757  -2.895  16.295  1.00 17.93    -0.243 OA
HETATM    7  C4  BTN A 300      20.577  -0.186  16.894  1.00 17.65     0.141 A 
HETATM    8  C5  BTN A 300      21.160  -0.423  18.284  1.00 17.47     0.142 A 
HETATM    9  C6  BTN A 300      21.887   0.842  18.726  1.00 17.06     0.084 C 
ENDROOT
BRANCH   3  10
HETATM   10  C7  BTN A 300      20.752   1.318  14.932  1.00 18.33     0.013 C 
BRANCH  10  11
HETATM   11  C8  BTN A 300      21.853   1.792  13.985  1.00 19.24     0.002 C 
BRANCH  11  12
HETATM   12  C9  BTN A 300      22.643   0.717  13.355  1.00 20.09     0.011 C 
BRANCH  12  13
HETATM   13  C10 BTN A 300      24.110   0.627  13.902  1.00 20.77     0.098 C 
BRANCH  13  14
HETATM   14  C11 BTN A 300      25.018   1.546  13.165  1.00 21.57     0.185 C 
HETATM   15  O11 BTN A 300      25.255   2.720  13.480  1.00 21.65    -0.647 OA
HETATM   16  O12 BTN A 300      25.159   1.236  11.890  1.00 22.67    -0.647 OA
ENDBRANCH  13  14
ENDBRANCH  12  13
ENDBRANCH  11  12
ENDBRANCH  10  11
ENDBRANCH   3  10
TORSDOF 5
ENDMDL
MODEL 7
REMARK VINA RESULT:    -3.691      1.707      2.074
REMARK INTER + INTRA:          -5.023
REMARK INTER:                  -4.876
REMARK INTRA:                  -0.146
REMARK UNBOUND:                -0.253
REMARK  5 active torsions:
REMARK  status: ('A' for Active; 'I' for Inactive)
REMARK    1  A    between atoms: C2_3  and  C7_10 
REMARK    2  A    between atoms: C7_10  and  C8_11 
REMARK    3  A    between atoms: C8_11  and  C9_12 
REMARK    4  A    between atoms: C9_12  and  C10_13 
REMARK    5  A    between atoms: C10_13  and  C11_14 
ROOT
HETATM    1  N1  BTN A 300      11.858  11.282  10.181  1.00 17.73    -0.217 NA
HETATM    2  S1  BTN A 300      11.413   8.300   8.798  1.00 16.59    -0.137 SA
HETATM    3  C2  BTN A 300      12.103   9.262   7.390  1.00 17.74     0.072 C 
HETATM    4  N2  BTN A 300      11.311  11.522   8.080  1.00 17.92    -0.217 NA
HETATM    5  C3  BTN A 300      10.990  11.866   9.347  1.00 17.95     0.360 A 
HETATM    6  O3  BTN A 300      10.026  12.614   9.619  1.00 17.93    -0.243 OA
HETATM    7  C4  BTN A 300      12.466  10.628   8.020  1.00 17.65     0.141 A 
HETATM    8  C5  BTN A 300      12.849  10.462   9.486  1.00 17.47     0.142 A 
HETATM    9  C6  BTN A 300      12.748   8.984   9.848  1.00 17.06     0.084 C 
ENDROOT
BRANCH   3  10
HETATM   10  C7  BTN A 300      11.325   9.463   6.153  1.00 18.33     0.013 C 
BRANCH  10  11
HETATM   11  C8  BTN A 300      11.808  10.314   4.980  1.00 19.24     0.002 C 
BRANCH  11  12
HETATM   12  C9  BTN A 300      10.783  10.617   3.962  1.00 20.09     0.011 C 
BRANCH  12  13
HETATM   13  C10 BTN A 300      10.038   9.342   3.436  1.00 20.77     0.098 C 
BRANCH  13  14
HETATM   14  C11 BTN A 300      10.040   9.291   1.950  1.00 21.57     0.185 C 
HETATM   15  O11 BTN A 300       9.730   8.303   1.270  1.00 21.65    -0.647 OA
HETATM   16  O12 BTN A 300      10.868  10.154   1.394  1.00 22.67    -0.647 OA
ENDBRANCH  13  14
ENDBRANCH  12  13
ENDBRANCH  11  12
ENDBRANCH  10  11
ENDBRANCH   3  10
TORSDOF 5
ENDMDL
MODEL 8
REMARK VINA RESULT:    -3.601      5.379      6.936
REMARK INTER + INTRA:          -4.906
REMARK INTER:                  -4.696
REMARK INTRA:                  -0.210
REMARK UNBOUND:                -0.253
REMARK  5 active torsions:
REMARK  status: ('A' for Active; 'I' for Inactive)
REMARK    1  A    between atoms: C2_3  and  C7_10 
REMARK    2  A    between atoms: C7_10  and  C8_11 
REMARK    3  A    between atoms: C8_11  and  C9_12 
REMARK    4  A    between atoms: C9_12  and  C10_13 
REMARK    5  A    between atoms: C10_13  and  C11_14 
ROOT
HETATM    1  N1  BTN A 300      10.525   9.653   4.057  1.00 17.73    -0.217 NA
HETATM    2  S1  BTN A 300       9.163  12.491   3.012  1.00 16.59    -0.137 SA
HETATM    3  C2  BTN A 300      10.809  12.545   2.192  1.00 17.74     0.072 C 
HETATM    4  N2  BTN A 300      12.076  11.175   3.843  1.00 17.92    -0.217 NA
HETATM    5  C3  BTN A 300      11.512  10.290   4.696  1.00 17.95     0.360 A 
HETATM    6  O3  BTN A 300      11.904  10.145   5.873  1.00 17.93    -0.243 OA
HETATM    7  C4  BTN A 300      11.435  11.171   2.530  1.00 17.65     0.141 A 
HETATM    8  C5  BTN A 300      10.353  10.106   2.678  1.00 17.47     0.142 A 
HETATM    9  C6  BTN A 300       8.996  10.759   2.439  1.00 17.06     0.084 C 
ENDROOT
BRANCH   3  10
HETATM   10  C7  BTN A 300      11.768  13.627   2.484  1.00 18.33     0.013 C 
BRANCH  10  11
HETATM   11  C8  BTN A 300      12.940  13.985   1.574  1.00 19.24     0.002 C 
BRANCH  11  12
HETATM   12  C9  BTN A 300      13.396  15.386   1.660  1.00 20.09     0.011 C 
BRANCH  12  13
HETATM   13  C10 BTN A 300      14.905  15.521   2.063  1.00 20.77     0.098 C 
BRANCH  13  14
HETATM   14  C11 BTN A 300      15.202  16.879   2.593  1.00 21.57     0.185 C 
HETATM   15  O11 BTN A 300      16.180  17.172   3.295  1.00 21.65    -0.647 OA
HETATM   16  O12 BTN A 300      14.133  17.640   2.721  1.00 22.67    -0.647 OA
ENDBRANCH  13  14
ENDBRANCH  12  13
ENDBRANCH  11  12
ENDBRANCH  10  11
ENDBRANCH   3  10
TORSDOF 5
ENDMDL
MODEL 9
REMARK VINA RESULT:    -3.552      3.994      6.965
REMARK INTER + INTRA:          -4.843
REMARK INTER:                  -4.521
REMARK INTRA:                  -0.321
REMARK UNBOUND:                -0.253
REMARK  5 active torsions:
REMARK  status: ('A' for Active; 'I' for Inactive)
REMARK    1  A    between atoms: C2_3  and  C7_10 
REMARK    2  A    between atoms: C7_10  and  C8_11 
REMARK    3  A    between atoms: C8_11  and  C9_12 
REMARK    4  A    between atoms: C9_12  and  C10_13 
REMARK    5  A    between atoms: C10_13  and  C11_14 
ROOT
HETATM    1  N1  BTN A 300      10.121   7.757   8.439  1.00 17.73    -0.217 NA
HETATM    2  S1  BTN A 300      11.373  10.685   7.511  1.00 16.59    -0.137 SA
HETATM    3  C2  BTN A 300      12.781   9.960   8.446  1.00 17.74     0.072 C 
HETATM    4  N2  BTN A 300      11.474   8.499   9.985  1.00 17.92    -0.217 NA
HETATM    5  C3  BTN A 300      10.221   8.057   9.739  1.00 17.95     0.360 A 
HETATM    6  O3  BTN A 300       9.350   7.969  10.631  1.00 17.93    -0.243 OA
HETATM    7  C4  BTN A 300      12.303   8.527   8.781  1.00 17.65     0.141 A 
HETATM    8  C5  BTN A 300      11.359   8.006   7.702  1.00 17.47     0.142 A 
HETATM    9  C6  BTN A 300      11.201   9.085   6.636  1.00 17.06     0.084 C 
ENDROOT
BRANCH   3  10
HETATM   10  C7  BTN A 300      13.308  10.616   9.657  1.00 18.33     0.013 C 
BRANCH  10  11
HETATM   11  C8  BTN A 300      12.973  12.053  10.053  1.00 19.24     0.002 C 
BRANCH  11  12
HETATM   12  C9  BTN A 300      14.075  13.021   9.894  1.00 20.09     0.011 C 
BRANCH  12  13
HETATM   13  C10 BTN A 300      14.501  13.699  11.241  1.00 20.77     0.098 C 
BRANCH  13  14
HETATM   14  C11 BTN A 300      15.459  12.847  11.995  1.00 21.57     0.185 C 
HETATM   15  O11 BTN A 300      15.148  12.031  12.874  1.00 21.65    -0.647 OA
HETATM   16  O12 BTN A 300      16.675  13.353  12.062  1.00 22.67    -0.647 OA
ENDBRANCH  13  14
ENDBRANCH  12  13
ENDBRANCH  11  12
ENDBRANCH  10  11
ENDBRANCH   3  10
TORSDOF 5
ENDMDL
