MODEL 1
REMARK VINA RESULT:    -6.158      0.000      0.000
REMARK INTER + INTRA:         -15.735
REMARK INTER:                 -11.738
REMARK INTRA:                  -3.997
REMARK UNBOUND:                -3.997
REMARK  22 active torsions:
REMARK  status: ('A' for Active; 'I' for Inactive)
REMARK    1  A    between atoms: C2_2  and  N6_42 
REMARK    2  A    between atoms: C3_3  and  O13_41 
REMARK    3  A    between atoms: C4_4  and  O5_20 
REMARK    4  A    between atoms: C5_5  and  O1_8 
REMARK    5  A    between atoms: C6_6  and  N1_7 
REMARK    6  A    between atoms: O1_8  and  C7_9 
REMARK    7  A    between atoms: C8_10  and  N3_19 
REMARK    8  A    between atoms: C9_11  and  O4_18 
REMARK    9  A    between atoms: C10_12  and  O3_17 
REMARK   10  A    between atoms: C11_13  and  C12_15 
REMARK   11  A    between atoms: C12_15  and  N2_16 
REMARK   12  A    between atoms: O5_20  and  C13_21 
REMARK   13  A    between atoms: C14_22  and  O12_40 
REMARK   14  A    between atoms: C15_23  and  O8_28 
REMARK   15  A    between atoms: C16_24  and  C17_26 
REMARK   16  A    between atoms: C17_26  and  O7_27 
REMARK   17  A    between atoms: O8_28  and  C18_29 
REMARK   18  A    between atoms: C19_30  and  N5_39 
REMARK   19  A    between atoms: C20_31  and  O11_38 
REMARK   20  A    between atoms: C21_32  and  O10_37 
REMARK   21  A    between atoms: C22_33  and  C23_35 
REMARK   22  A    between atoms: C23_35  and  N4_36 
ROOT
HETATM    1  C1  NEO     1     -20.700 -12.600 -16.262  1.00  0.00     0.076 C 
HETATM    2  C2  NEO     1     -19.672 -12.745 -17.394  1.00  0.00     0.251 C 
HETATM    3  C3  NEO     1     -18.261 -12.998 -16.818  1.00  0.00     0.182 C 
HETATM    4  C4  NEO     1     -18.263 -14.250 -15.915  1.00  0.00     0.186 C 
HETATM    5  C5  NEO     1     -19.282 -14.103 -14.763  1.00  0.00     0.189 C 
HETATM    6  C6  NEO     1     -20.701 -13.837 -15.341  1.00  0.00     0.251 C 
ENDROOT
BRANCH   4   7
HETATM    7  O5  NEO     1     -16.964 -14.418 -15.360  1.00  0.00    -0.348 OA
BRANCH   7   8
HETATM    8  C13 NEO     1     -16.355 -15.623 -15.793  1.00  0.00     0.292 C 
HETATM    9  C14 NEO     1     -15.860 -16.411 -14.591  1.00  0.00     0.205 C 
HETATM   10  C15 NEO     1     -15.897 -17.833 -15.100  1.00  0.00     0.189 C 
HETATM   11  C16 NEO     1     -17.060 -17.771 -16.103  1.00  0.00     0.180 C 
HETATM   12  O6  NEO     1     -17.309 -16.424 -16.458  1.00  0.00    -0.348 OA
BRANCH   9  13
HETATM   13  O12 NEO     1     -14.589 -16.009 -14.132  1.00  0.00    -0.388 OA
HETATM   14  H43 NEO     1     -13.893 -16.444 -14.689  1.00  0.00     0.210 HD
ENDBRANCH   9  13
BRANCH  10  15
HETATM   15  O8  NEO     1     -14.709 -18.139 -15.818  1.00  0.00    -0.348 OA
BRANCH  15  16
HETATM   16  C18 NEO     1     -14.067 -19.284 -15.297  1.00  0.00     0.296 C 
HETATM   17  C19 NEO     1     -13.747 -20.244 -16.468  1.00  0.00     0.303 C 
HETATM   18  C20 NEO     1     -13.145 -21.564 -15.936  1.00  0.00     0.187 C 
HETATM   19  C21 NEO     1     -13.964 -22.123 -14.753  1.00  0.00     0.179 C 
HETATM   20  C22 NEO     1     -14.249 -20.999 -13.729  1.00  0.00     0.183 C 
HETATM   21  O9  NEO     1     -14.921 -19.923 -14.360  1.00  0.00    -0.349 OA
BRANCH  17  22
HETATM   22  N5  NEO     1     -14.932 -20.515 -17.293  1.00  0.00     0.090 N 
HETATM   23  H41 NEO     1     -14.654 -20.982 -18.185  1.00  0.00     0.313 HD
HETATM   24  H42 NEO     1     -15.554 -21.181 -16.778  1.00  0.00     0.313 HD
ENDBRANCH  17  22
BRANCH  18  25
HETATM   25  O11 NEO     1     -11.822 -21.349 -15.514  1.00  0.00    -0.391 OA
HETATM   26  H40 NEO     1     -11.561 -22.134 -14.967  1.00  0.00     0.210 HD
ENDBRANCH  18  25
BRANCH  19  27
HETATM   27  O10 NEO     1     -15.173 -22.672 -15.213  1.00  0.00    -0.390 OA
HETATM   28  H39 NEO     1     -15.198 -23.613 -14.900  1.00  0.00     0.210 HD
ENDBRANCH  19  27
BRANCH  20  29
HETATM   29  C23 NEO     1     -15.119 -21.485 -12.548  1.00  0.00     0.301 C 
BRANCH  29  30
HETATM   30  N4  NEO     1     -16.247 -20.597 -12.275  1.00  0.00     0.080 N 
HETATM   31  H37 NEO     1     -16.283 -19.848 -13.003  1.00  0.00     0.312 HD
HETATM   32  H38 NEO     1     -17.140 -21.140 -12.315  1.00  0.00     0.312 HD
ENDBRANCH  29  30
ENDBRANCH  20  29
ENDBRANCH  15  16
ENDBRANCH  10  15
BRANCH  11  33
HETATM   33  C17 NEO     1     -18.348 -18.410 -15.552  1.00  0.00     0.198 C 
BRANCH  33  34
HETATM   34  O7  NEO     1     -18.055 -19.473 -14.684  1.00  0.00    -0.398 OA
HETATM   35  H29 NEO     1     -17.067 -19.520 -14.607  1.00  0.00     0.209 HD
ENDBRANCH  33  34
ENDBRANCH  11  33
ENDBRANCH   7   8
ENDBRANCH   4   7
BRANCH   3  36
HETATM   36  O13 NEO     1     -17.359 -13.184 -17.879  1.00  0.00    -0.391 OA
HETATM   37  H44 NEO     1     -17.328 -14.159 -18.070  1.00  0.00     0.210 HD
ENDBRANCH   3  36
BRANCH   5  38
HETATM   38  O1  NEO     1     -19.265 -15.323 -14.038  1.00  0.00    -0.349 OA
BRANCH  38  39
HETATM   39  C7  NEO     1     -19.472 -15.156 -12.639  1.00  0.00     0.296 C 
HETATM   40  C8  NEO     1     -18.228 -15.612 -11.854  1.00  0.00     0.303 C 
HETATM   41  C9  NEO     1     -18.024 -17.128 -12.038  1.00  0.00     0.187 C 
HETATM   42  C10 NEO     1     -19.326 -17.898 -11.731  1.00  0.00     0.179 C 
HETATM   43  C11 NEO     1     -20.510 -17.271 -12.511  1.00  0.00     0.183 C 
HETATM   44  O2  NEO     1     -20.613 -15.884 -12.213  1.00  0.00    -0.349 OA
BRANCH  40  45
HETATM   45  N3  NEO     1     -17.046 -14.876 -12.307  1.00  0.00     0.090 N 
HETATM   46  H21 NEO     1     -16.809 -14.152 -11.589  1.00  0.00     0.313 HD
HETATM   47  H22 NEO     1     -16.236 -15.536 -12.322  1.00  0.00     0.313 HD
ENDBRANCH  40  45
BRANCH  41  48
HETATM   48  O4  NEO     1     -16.966 -17.594 -11.235  1.00  0.00    -0.391 OA
HETATM   49  H20 NEO     1     -17.093 -17.220 -10.325  1.00  0.00     0.210 HD
ENDBRANCH  41  48
BRANCH  42  50
HETATM   50  O3  NEO     1     -19.159 -19.241 -12.104  1.00  0.00    -0.390 OA
HETATM   51  H19 NEO     1     -18.691 -19.243 -12.979  1.00  0.00     0.210 HD
ENDBRANCH  42  50
BRANCH  43  52
HETATM   52  C12 NEO     1     -21.863 -17.918 -12.133  1.00  0.00     0.301 C 
BRANCH  52  53
HETATM   53  N2  NEO     1     -21.863 -18.526 -10.802  1.00  0.00     0.080 N 
HETATM   54  H17 NEO     1     -21.961 -17.784 -10.075  1.00  0.00     0.312 HD
HETATM   55  H18 NEO     1     -20.965 -19.037 -10.640  1.00  0.00     0.312 HD
ENDBRANCH  52  53
ENDBRANCH  43  52
ENDBRANCH  38  39
ENDBRANCH   5  38
BRANCH   2  56
HETATM   56  N6  NEO     1     -19.697 -11.539 -18.228  1.00  0.00     0.085 N 
HETATM   57  H45 NEO     1     -18.784 -11.448 -18.732  1.00  0.00     0.313 HD
HETATM   58  H46 NEO     1     -20.446 -11.638 -18.954  1.00  0.00     0.313 HD
ENDBRANCH   2  56
BRANCH   6  59
HETATM   59  N1  NEO     1     -21.679 -13.660 -14.265  1.00  0.00     0.085 N 
HETATM   60  H8  NEO     1     -22.413 -12.980 -14.571  1.00  0.00     0.313 HD
HETATM   61  H9  NEO     1     -22.154 -14.575 -14.082  1.00  0.00     0.313 HD
ENDBRANCH   6  59
TORSDOF 22
ENDMDL
