MODEL 1
REMARK VINA RESULT:    -7.378      0.000      0.000
REMARK INTER + INTRA:         -15.553
REMARK INTER:                 -12.985
REMARK INTRA:                  -2.568
REMARK UNBOUND:                -2.568
REMARK  17 active torsions:
REMARK  status: ('A' for Active; 'I' for Inactive)
REMARK    1  A    between atoms: C3_3  and  C21_38 
REMARK    2  A    between atoms: C3_3  and  O12_40 
REMARK    3  A    between atoms: C4_4  and  O6_25 
REMARK    4  A    between atoms: C5_5  and  O2_7 
REMARK    5  A    between atoms: O2_7  and  C6_8 
REMARK    6  A    between atoms: C7_9  and  N4_21 
REMARK    7  A    between atoms: C8_10  and  O5_20 
REMARK    8  A    between atoms: C9_11  and  N1_16 
REMARK    9  A    between atoms: C10_12  and  O4_15 
REMARK   10  A    between atoms: C11_13  and  O3_14 
REMARK       I    between atoms: N1_16  and  C12_17 
REMARK       I    between atoms: C12_17  and  N2_18 
REMARK       I    between atoms: C12_17  and  N3_19 
REMARK       I    between atoms: N4_21  and  C13_22 
REMARK       I    between atoms: C13_22  and  N5_23 
REMARK       I    between atoms: C13_22  and  N6_24 
REMARK   11  A    between atoms: O6_25  and  C14_26 
REMARK   12  A    between atoms: C15_27  and  N7_36 
REMARK   13  A    between atoms: C16_28  and  O10_35 
REMARK   14  A    between atoms: C17_29  and  O9_34 
REMARK   15  A    between atoms: C18_30  and  C19_32 
REMARK   16  A    between atoms: C19_32  and  O8_33 
REMARK   17  A    between atoms: C21_38  and  O11_39 
ROOT
HETATM    1  C6  STM     1     -29.638  -6.537 -10.478  1.00  0.00     0.192 C 
HETATM    2  C7  STM     1     -29.058  -7.597 -11.455  1.00  0.00     0.287 C 
HETATM    3  C8  STM     1     -30.032  -7.879 -12.632  1.00  0.00     0.190 C 
HETATM    4  C9  STM     1     -30.392  -6.554 -13.368  1.00  0.00     0.287 C 
HETATM    5  C10 STM     1     -30.941  -5.479 -12.397  1.00  0.00     0.185 C 
HETATM    6  C11 STM     1     -29.945  -5.226 -11.244  1.00  0.00     0.180 C 
ENDROOT
BRANCH   1   7
HETATM    7  O2  STM     1     -28.674  -6.301  -9.459  1.00  0.00    -0.348 OA
BRANCH   7   8
HETATM    8  C5  STM     1     -29.257  -5.897  -8.226  1.00  0.00     0.293 C 
HETATM    9  C4  STM     1     -30.332  -6.904  -7.812  1.00  0.00     0.218 C 
HETATM   10  C3  STM     1     -29.571  -7.897  -6.927  1.00  0.00     0.135 C 
HETATM   11  C2  STM     1     -28.224  -7.163  -6.651  1.00  0.00     0.160 C 
HETATM   12  C1  STM     1     -27.874  -7.003  -5.168  1.00  0.00     0.043 C 
HETATM   13  O1  STM     1     -28.266  -5.882  -7.231  1.00  0.00    -0.350 OA
BRANCH   9  14
HETATM   14  O6  STM     1     -31.346  -6.243  -7.064  1.00  0.00    -0.346 OA
BRANCH  14  15
HETATM   15  C14 STM     1     -31.182  -4.826  -7.065  1.00  0.00     0.297 C 
HETATM   16  C15 STM     1     -32.530  -4.132  -7.423  1.00  0.00     0.305 C 
HETATM   17  C16 STM     1     -32.516  -2.618  -7.064  1.00  0.00     0.187 C 
HETATM   18  C17 STM     1     -31.074  -2.124  -6.802  1.00  0.00     0.180 C 
HETATM   19  C18 STM     1     -30.351  -3.040  -5.757  1.00  0.00     0.179 C 
HETATM   20  O7  STM     1     -30.754  -4.413  -5.783  1.00  0.00    -0.349 OA
BRANCH  16  21
HETATM   21  N7  STM     1     -33.728  -4.804  -6.850  1.00  0.00     0.091 N 
HETATM   22  C20 STM     1     -34.294  -4.157  -5.654  1.00  0.00     0.307 C 
HETATM   23  H34 STM     1     -33.476  -5.784  -6.597  1.00  0.00     0.316 HD
ENDBRANCH  16  21
BRANCH  17  24
HETATM   24  O10 STM     1     -33.090  -1.887  -8.119  1.00  0.00    -0.391 OA
HETATM   25  H33 STM     1     -32.969  -2.423  -8.944  1.00  0.00     0.210 HD
ENDBRANCH  17  24
BRANCH  18  26
HETATM   26  O9  STM     1     -31.058  -0.783  -6.377  1.00  0.00    -0.390 OA
HETATM   27  H32 STM     1     -31.363  -0.753  -5.436  1.00  0.00     0.210 HD
ENDBRANCH  18  26
BRANCH  19  28
HETATM   28  C19 STM     1     -28.821  -2.941  -5.892  1.00  0.00     0.198 C 
BRANCH  28  29
HETATM   29  O8  STM     1     -28.399  -1.616  -5.709  1.00  0.00    -0.398 OA
HETATM   30  H31 STM     1     -27.719  -1.422  -6.410  1.00  0.00     0.209 HD
ENDBRANCH  28  29
ENDBRANCH  19  28
ENDBRANCH  14  15
ENDBRANCH   9  14
BRANCH  10  31
HETATM   31  C21 STM     1     -29.339  -9.247  -7.661  1.00  0.00     0.207 C 
BRANCH  31  32
HETATM   32  O11 STM     1     -27.990  -9.625  -7.618  1.00  0.00    -0.398 OA
HETATM   33  H6  STM     1     -27.468  -8.778  -7.661  1.00  0.00     0.209 HD
ENDBRANCH  31  32
ENDBRANCH  10  31
BRANCH  10  34
HETATM   34  O12 STM     1     -30.313  -8.139  -5.746  1.00  0.00    -0.382 OA
HETATM   35  H39 STM     1     -31.243  -7.842  -5.896  1.00  0.00     0.210 HD
ENDBRANCH  10  34
ENDBRANCH   7   8
ENDBRANCH   1   7
BRANCH   2  36
HETATM   36  N4  STM     1     -28.596  -8.822 -10.753  1.00  0.00     0.156 N 
HETATM   37  C13 STM     1     -27.144  -9.075 -10.739  1.00  0.00     0.674 C 
HETATM   38  N5  STM     1     -26.909 -10.494 -10.452  1.00  0.00     0.142 N 
HETATM   39  N6  STM     1     -26.483  -8.242  -9.725  1.00  0.00     0.142 N 
HETATM   40  H20 STM     1     -25.895 -10.706 -10.625  1.00  0.00     0.318 HD
HETATM   41  H21 STM     1     -27.454 -11.068 -11.137  1.00  0.00     0.318 HD
HETATM   42  H22 STM     1     -25.573  -7.887 -10.123  1.00  0.00     0.318 HD
HETATM   43  H23 STM     1     -26.241  -8.808  -8.873  1.00  0.00     0.318 HD
HETATM   44  H3  STM     1     -28.953  -8.819  -9.768  1.00  0.00     0.321 HD
ENDBRANCH   2  36
BRANCH   6  45
HETATM   45  O3  STM     1     -30.502  -4.285 -10.363  1.00  0.00    -0.390 OA
HETATM   46  H13 STM     1     -31.066  -3.682 -10.910  1.00  0.00     0.210 HD
ENDBRANCH   6  45
BRANCH   3  47
HETATM   47  O5  STM     1     -29.461  -8.798 -13.532  1.00  0.00    -0.391 OA
HETATM   48  H19 STM     1     -28.512  -8.940 -13.269  1.00  0.00     0.210 HD
ENDBRANCH   3  47
BRANCH   5  49
HETATM   49  O4  STM     1     -31.151  -4.268 -13.079  1.00  0.00    -0.391 OA
HETATM   50  H14 STM     1     -31.893  -4.420 -13.727  1.00  0.00     0.210 HD
ENDBRANCH   5  49
BRANCH   4  51
HETATM   51  N1  STM     1     -31.277  -6.720 -14.549  1.00  0.00     0.156 N 
HETATM   52  C12 STM     1     -32.630  -7.296 -14.385  1.00  0.00     0.674 C 
HETATM   53  N2  STM     1     -33.346  -6.691 -13.262  1.00  0.00     0.142 N 
HETATM   54  N3  STM     1     -32.574  -8.749 -14.225  1.00  0.00     0.142 N 
HETATM   55  H15 STM     1     -34.293  -7.140 -13.189  1.00  0.00     0.318 HD
HETATM   56  H16 STM     1     -33.536  -5.687 -13.496  1.00  0.00     0.318 HD
HETATM   57  H17 STM     1     -33.550  -9.115 -14.214  1.00  0.00     0.318 HD
HETATM   58  H18 STM     1     -32.135  -9.153 -15.084  1.00  0.00     0.318 HD
HETATM   59  H1  STM     1     -30.766  -7.244 -15.296  1.00  0.00     0.321 HD
ENDBRANCH   4  51
TORSDOF 17
ENDMDL
