MODEL 1
REMARK VINA RESULT:    -6.544      0.000      0.000
REMARK INTER + INTRA:         -12.773
REMARK INTER:                 -10.753
REMARK INTRA:                  -2.020
REMARK UNBOUND:                -2.020
REMARK  16 active torsions:
REMARK  status: ('A' for Active; 'I' for Inactive)
REMARK    1  A    between atoms: C2_2  and  N5_32 
REMARK    2  A    between atoms: C3_3  and  O7_21 
REMARK    3  A    between atoms: C4_4  and  O6_20 
REMARK    4  A    between atoms: C5_5  and  O1_8 
REMARK    5  A    between atoms: C6_6  and  N1_7 
REMARK    6  A    between atoms: O1_8  and  C7_9 
REMARK    7  A    between atoms: C8_10  and  O5_19 
REMARK    8  A    between atoms: C9_11  and  N2_18 
REMARK    9  A    between atoms: C10_12  and  O4_17 
REMARK   10  A    between atoms: C11_13  and  C12_15 
REMARK   11  A    between atoms: C12_15  and  O3_16 
REMARK   12  A    between atoms: O7_21  and  C13_22 
REMARK   13  A    between atoms: C14_23  and  N4_31 
REMARK   14  A    between atoms: C16_25  and  O9_30 
REMARK   15  A    between atoms: C17_26  and  C18_28 
REMARK   16  A    between atoms: C18_28  and  N3_29 
ROOT
HETATM    1  C1  TOB     1     -26.783  -7.501  -9.337  1.00  0.00     0.076 C 
HETATM    2  C2  TOB     1     -27.745  -7.404  -8.129  1.00  0.00     0.251 C 
HETATM    3  C3  TOB     1     -29.239  -7.331  -8.543  1.00  0.00     0.189 C 
HETATM    4  C4  TOB     1     -29.619  -8.414  -9.577  1.00  0.00     0.180 C 
HETATM    5  C5  TOB     1     -28.695  -8.398 -10.828  1.00  0.00     0.189 C 
HETATM    6  C6  TOB     1     -27.195  -8.481 -10.463  1.00  0.00     0.251 C 
ENDROOT
BRANCH   5   7
HETATM    7  O1  TOB     1     -28.895  -7.208 -11.579  1.00  0.00    -0.348 OA
BRANCH   7   8
HETATM    8  C7  TOB     1     -29.994  -7.293 -12.475  1.00  0.00     0.291 C 
HETATM    9  C8  TOB     1     -29.497  -7.855 -13.831  1.00  0.00     0.208 C 
HETATM   10  C9  TOB     1     -30.461  -7.494 -14.998  1.00  0.00     0.282 C 
HETATM   11  C10 TOB     1     -31.856  -7.130 -14.459  1.00  0.00     0.184 C 
HETATM   12  C11 TOB     1     -31.716  -5.968 -13.434  1.00  0.00     0.179 C 
HETATM   13  O2  TOB     1     -30.524  -5.992 -12.652  1.00  0.00    -0.349 OA
BRANCH   9  14
HETATM   14  O5  TOB     1     -28.194  -7.410 -14.125  1.00  0.00    -0.388 OA
HETATM   15  H21 TOB     1     -27.560  -7.992 -13.630  1.00  0.00     0.210 HD
ENDBRANCH   9  14
BRANCH  10  16
HETATM   16  N2  TOB     1     -30.555  -8.588 -15.968  1.00  0.00     0.088 N 
HETATM   17  H19 TOB     1     -29.601  -8.997 -16.103  1.00  0.00     0.313 HD
HETATM   18  H20 TOB     1     -31.168  -9.343 -15.584  1.00  0.00     0.313 HD
ENDBRANCH  10  16
BRANCH  11  19
HETATM   19  O4  TOB     1     -32.694  -6.724 -15.512  1.00  0.00    -0.391 OA
HETATM   20  H18 TOB     1     -32.205  -6.900 -16.358  1.00  0.00     0.210 HD
ENDBRANCH  11  19
BRANCH  12  21
HETATM   21  C12 TOB     1     -32.950  -5.821 -12.530  1.00  0.00     0.198 C 
BRANCH  21  22
HETATM   22  O3  TOB     1     -34.120  -5.647 -13.285  1.00  0.00    -0.398 OA
HETATM   23  H17 TOB     1     -34.885  -5.699 -12.654  1.00  0.00     0.209 HD
ENDBRANCH  21  22
ENDBRANCH  12  21
ENDBRANCH   7   8
ENDBRANCH   5   7
BRANCH   4  24
HETATM   24  O6  TOB     1     -29.629  -9.681  -8.974  1.00  0.00    -0.390 OA
HETATM   25  H22 TOB     1     -28.928  -9.672  -8.269  1.00  0.00     0.210 HD
ENDBRANCH   4  24
BRANCH   6  26
HETATM   26  N1  TOB     1     -26.769  -9.863 -10.211  1.00  0.00     0.085 N 
HETATM   27  H8  TOB     1     -26.222  -9.901  -9.321  1.00  0.00     0.313 HD
HETATM   28  H9  TOB     1     -27.582 -10.503 -10.114  1.00  0.00     0.313 HD
ENDBRANCH   6  26
BRANCH   3  29
HETATM   29  O7  TOB     1     -29.537  -6.060  -9.110  1.00  0.00    -0.349 OA
BRANCH  29  30
HETATM   30  C13 TOB     1     -30.065  -5.135  -8.168  1.00  0.00     0.293 C 
HETATM   31  C14 TOB     1     -31.213  -4.329  -8.823  1.00  0.00     0.275 C 
HETATM   32  C15 TOB     1     -31.446  -2.985  -8.086  1.00  0.00     0.074 C 
HETATM   33  C16 TOB     1     -30.921  -3.038  -6.646  1.00  0.00     0.151 C 
HETATM   34  C17 TOB     1     -29.417  -3.449  -6.648  1.00  0.00     0.181 C 
HETATM   35  O8  TOB     1     -29.039  -4.241  -7.772  1.00  0.00    -0.349 OA
BRANCH  31  36
HETATM   36  N4  TOB     1     -30.946  -4.097 -10.245  1.00  0.00     0.087 N 
HETATM   37  H34 TOB     1     -30.176  -4.736 -10.552  1.00  0.00     0.313 HD
HETATM   38  H35 TOB     1     -31.799  -4.331 -10.804  1.00  0.00     0.313 HD
ENDBRANCH  31  36
BRANCH  33  39
HETATM   39  O9  TOB     1     -31.071  -1.779  -6.041  1.00  0.00    -0.393 OA
HETATM   40  H33 TOB     1     -31.876  -1.361  -6.443  1.00  0.00     0.210 HD
ENDBRANCH  33  39
BRANCH  34  41
HETATM   41  C18 TOB     1     -28.986  -4.160  -5.345  1.00  0.00     0.301 C 
BRANCH  41  42
HETATM   42  N3  TOB     1     -30.009  -4.088  -4.302  1.00  0.00     0.080 N 
HETATM   43  H31 TOB     1     -30.656  -4.905  -4.392  1.00  0.00     0.312 HD
HETATM   44  H32 TOB     1     -29.550  -4.134  -3.365  1.00  0.00     0.312 HD
ENDBRANCH  41  42
ENDBRANCH  34  41
ENDBRANCH  29  30
ENDBRANCH   3  29
BRANCH   2  45
HETATM   45  N5  TOB     1     -27.512  -8.447  -7.123  1.00  0.00     0.085 N 
HETATM   46  H36 TOB     1     -28.383  -8.973  -6.912  1.00  0.00     0.313 HD
HETATM   47  H37 TOB     1     -26.815  -9.131  -7.497  1.00  0.00     0.313 HD
ENDBRANCH   2  45
TORSDOF 16
ENDMDL
