REMARK  13 active torsions:
REMARK  status: ('A' for Active; 'I' for Inactive)
REMARK    1  A    between atoms: O_1  and  P_2 
REMARK    2  A    between atoms: O_1  and  C2_12 
REMARK    3  A    between atoms: P_2  and  O2_4 
REMARK    4  A    between atoms: P_2  and  O3_10 
REMARK    5  A    between atoms: O2_4  and  C_5 
REMARK    6  A    between atoms: C_5  and  C1_6 
REMARK    7  A    between atoms: C1_6  and  N_7 
REMARK    8  A    between atoms: C2_12  and  C3_13 
REMARK    9  A    between atoms: C3_13  and  O4_14 
REMARK   10  A    between atoms: C3_13  and  C6_18 
REMARK   11  A    between atoms: O4_14  and  C4_15 
REMARK   12  A    between atoms: C6_18  and  O6_19 
REMARK   13  A    between atoms: O6_19  and  C7_20 
ROOT
ATOM      1  O   EA1 Z   1       1.354  -1.754   0.871  1.00  0.00    -0.294 OA
ENDROOT
BRANCH   1   2
ATOM      2  P   EA1 Z   1       2.177  -0.680  -0.021  1.00  0.00     0.393 P 
ATOM      3  O1  EA1 Z   1       1.483  -0.253  -1.282  1.00  0.00    -0.631 OA
BRANCH   2   4
ATOM      4  O2  EA1 Z   1       2.530   0.525   1.000  1.00  0.00    -0.295 OA
BRANCH   4   5
ATOM      5  C   EA1 Z   1       1.924   0.570   2.281  1.00  0.00     0.210 C 
BRANCH   5   6
ATOM      6  C1  EA1 Z   1       1.134   1.863   2.402  1.00  0.00     0.293 C 
BRANCH   6   7
ATOM      7  N   EA1 Z   1      -0.083   1.798   1.607  1.00  0.00     0.080 N 
ATOM      8  H   EA1 Z   1      -0.772   1.215   2.080  1.00  0.00     0.312 HD
ATOM      9  H1  EA1 Z   1      -0.493   2.728   1.539  1.00  0.00     0.312 HD
ENDBRANCH   6   7
ENDBRANCH   5   6
ENDBRANCH   4   5
ENDBRANCH   2   4
BRANCH   2  10
ATOM     10  O3  EA1 Z   1       3.596  -1.422  -0.267  1.00  0.00    -0.307 OA
ATOM     11  H2  EA1 Z   1       4.372  -1.143   0.262  1.00  0.00     0.222 HD
ENDBRANCH   2  10
ENDBRANCH   1   2
BRANCH   1  12
ATOM     12  C2  EA1 Z   1       0.250  -2.418   0.278  1.00  0.00     0.215 C 
BRANCH  12  13
ATOM     13  C3  EA1 Z   1       0.589  -3.886   0.050  1.00  0.00     0.180 C 
BRANCH  13  14
ATOM     14  O4  EA1 Z   1       1.729  -4.222   0.844  1.00  0.00    -0.312 OA
BRANCH  14  15
ATOM     15  C4  EA1 Z   1       1.528  -5.197   1.777  1.00  0.00     0.255 C 
ATOM     16  O5  EA1 Z   1       0.646  -6.045   1.759  1.00  0.00    -0.266 OA
ATOM     17  C5  EA1 Z   1       2.565  -5.085   2.853  1.00  0.00     0.126 C 
ENDBRANCH  14  15
ENDBRANCH  13  14
BRANCH  13  18
ATOM     18  C6  EA1 Z   1       0.935  -4.158  -1.408  1.00  0.00     0.213 C 
BRANCH  18  19
ATOM     19  O6  EA1 Z   1       2.320  -3.899  -1.611  1.00  0.00    -0.319 OA
BRANCH  19  20
ATOM     20  C7  EA1 Z   1       2.665  -3.450  -2.856  1.00  0.00     0.254 C 
ATOM     21  O7  EA1 Z   1       3.377  -2.488  -3.103  1.00  0.00    -0.266 OA
ATOM     22  C8  EA1 Z   1       2.035  -4.321  -3.901  1.00  0.00     0.126 C 
ENDBRANCH  19  20
ENDBRANCH  18  19
ENDBRANCH  13  18
ENDBRANCH  12  13
ENDBRANCH   1  12
TORSDOF 13
