MODEL 1
REMARK VINA RESULT:    -6.579      0.000      0.000
REMARK INTER + INTRA:         -10.042
REMARK INTER:                  -9.271
REMARK INTRA:                  -0.771
REMARK UNBOUND:                -0.771
REMARK  9 active torsions:
REMARK  status: ('A' for Active; 'I' for Inactive)
REMARK    1  A    between atoms: C3_3  and  C15_20 
REMARK    2  A    between atoms: C5_7  and  N2_10 
REMARK    3  A    between atoms: C6_8  and  O1_9 
REMARK    4  A    between atoms: N2_10  and  C7_11 
REMARK    5  A    between atoms: C7_11  and  O2_12 
REMARK    6  A    between atoms: C7_11  and  C8_13 
REMARK    7  A    between atoms: C8_13  and  C9_14 
REMARK    8  A    between atoms: C15_20  and  O3_21 
REMARK    9  A    between atoms: C15_20  and  O4_22 
ROOT
HETATM    1  C1  PEN     1     -39.249  -5.330  40.523  1.00  0.00     0.029 C 
HETATM    2  C2  PEN     1     -40.591  -4.855  41.126  1.00  0.00     0.039 C 
HETATM    3  C3  PEN     1     -41.532  -4.032  40.164  1.00  0.00     0.299 C 
HETATM    4  N1  PEN     1     -41.964  -2.760  40.786  1.00  0.00     0.146 N 
HETATM    5  C4  PEN     1     -41.265  -2.463  42.036  1.00  0.00     0.326 A 
HETATM    6  S1  PEN     1     -40.175  -3.820  42.560  1.00  0.00    -0.119 SA
HETATM    7  C5  PEN     1     -42.569  -2.318  42.829  1.00  0.00     0.325 A 
HETATM    8  C6  PEN     1     -43.249  -2.726  41.518  1.00  0.00     0.395 A 
HETATM    9  C16 PEN     1     -41.327  -6.109  41.640  1.00  0.00     0.029 C 
ENDROOT
BRANCH   7  10
HETATM   10  N2  PEN     1     -42.716  -3.249  43.969  1.00  0.00     0.124 N 
HETATM   11  H7  PEN     1     -43.626  -3.757  43.923  1.00  0.00     0.320 HD
BRANCH  10  12
HETATM   12  C7  PEN     1     -42.603  -2.545  45.259  1.00  0.00     0.354 C 
BRANCH  12  13
HETATM   13  O2  PEN     1     -41.323  -2.753  45.802  1.00  0.00    -0.368 OA
HETATM   14  H4  PEN     1     -40.713  -2.115  45.347  1.00  0.00     0.212 HD
ENDBRANCH  12  13
BRANCH  12  15
HETATM   15  C8  PEN     1     -42.807  -1.036  45.036  1.00  0.00     0.068 C 
BRANCH  15  16
HETATM   16  C9  PEN     1     -41.620  -0.178  45.533  1.00  0.00    -0.010 C 
HETATM   17  C10 PEN     1     -41.142   0.772  44.417  1.00  0.00     0.005 C 
HETATM   18  C11 PEN     1     -39.877   1.550  44.831  1.00  0.00     0.000 C 
HETATM   19  C12 PEN     1     -39.782   1.809  46.348  1.00  0.00     0.000 C 
HETATM   20  C13 PEN     1     -41.169   1.919  46.987  1.00  0.00     0.000 C 
HETATM   21  C14 PEN     1     -41.980   0.619  46.817  1.00  0.00     0.005 C 
ENDBRANCH  15  16
ENDBRANCH  12  15
ENDBRANCH  10  12
ENDBRANCH   7  10
BRANCH   8  22
HETATM   22  O1  PEN     1     -43.902  -3.969  41.576  1.00  0.00    -0.366 OA
HETATM   23  H2  PEN     1     -44.873  -3.770  41.623  1.00  0.00     0.212 HD
ENDBRANCH   8  22
BRANCH   3  24
HETATM   24  C15 PEN     1     -40.970  -3.666  38.769  1.00  0.00     0.289 C 
BRANCH  24  25
HETATM   25  O3  PEN     1     -41.603  -4.417  37.766  1.00  0.00    -0.369 OA
HETATM   26  H12 PEN     1     -40.992  -5.165  37.539  1.00  0.00     0.212 HD
ENDBRANCH  24  25
BRANCH  24  27
HETATM   27  O4  PEN     1     -41.107  -2.292  38.520  1.00  0.00    -0.369 OA
HETATM   28  H15 PEN     1     -41.628  -1.913  39.275  1.00  0.00     0.212 HD
ENDBRANCH  24  27
ENDBRANCH   3  24
TORSDOF 9
ENDMDL
