MODEL 1
REMARK VINA RESULT:      -4.4      0.000      0.000
REMARK  5 active torsions:
REMARK  status: ('A' for Active; 'I' for Inactive)
REMARK    1  A    between atoms: C2_3  and  C7_10 
REMARK    2  A    between atoms: C7_10  and  C8_11 
REMARK    3  A    between atoms: C8_11  and  C9_12 
REMARK    4  A    between atoms: C9_12  and  C10_13 
REMARK    5  A    between atoms: C10_13  and  C11_14 
ROOT
HETATM    1  N1  BTN A 300      18.880  14.948 -13.069  1.00 17.73    -0.217 NA
HETATM    2  S1  BTN A 300      21.882  15.844 -11.980  1.00 16.59    -0.137 SA
HETATM    3  C2  BTN A 300      22.214  14.159 -12.641  1.00 17.74     0.072 C 
HETATM    4  N2  BTN A 300      19.941  13.193 -12.317  1.00 17.92    -0.217 NA
HETATM    5  C3  BTN A 300      18.808  13.923 -12.212  1.00 17.95     0.360 A 
HETATM    6  O3  BTN A 300      17.885  13.626 -11.424  1.00 17.93    -0.243 OA
HETATM    7  C4  BTN A 300      20.874  13.748 -13.295  1.00 17.65     0.141 A 
HETATM    8  C5  BTN A 300      20.132  14.973 -13.822  1.00 17.47     0.142 A 
HETATM    9  C6  BTN A 300      20.972  16.211 -13.526  1.00 17.06     0.084 C 
ENDROOT
BRANCH   3  10
HETATM   10  C7  BTN A 300      22.704  13.080 -11.762  1.00 18.33     0.013 C 
BRANCH  10  11
HETATM   11  C8  BTN A 300      23.212  11.736 -12.277  1.00 19.24     0.002 C 
BRANCH  11  12
HETATM   12  C9  BTN A 300      24.391  11.808 -13.161  1.00 20.09     0.011 C 
BRANCH  12  13
HETATM   13  C10 BTN A 300      24.018  11.965 -14.676  1.00 20.77     0.098 C 
BRANCH  13  14
HETATM   14  C11 BTN A 300      24.245  10.697 -15.421  1.00 21.57     0.185 C 
HETATM   15  O11 BTN A 300      24.799  10.608 -16.524  1.00 21.65    -0.647 OA
HETATM   16  O12 BTN A 300      23.387   9.744 -15.111  1.00 22.67    -0.647 OA
ENDBRANCH  13  14
ENDBRANCH  12  13
ENDBRANCH  11  12
ENDBRANCH  10  11
ENDBRANCH   3  10
TORSDOF 5
ENDMDL
