MODEL 1
REMARK VINA RESULT:      -7.0      0.000      0.000
REMARK  5 active torsions:
REMARK  status: ('A' for Active; 'I' for Inactive)
REMARK    1  A    between atoms: C2_3  and  C7_10 
REMARK    2  A    between atoms: C7_10  and  C8_11 
REMARK    3  A    between atoms: C8_11  and  C9_12 
REMARK    4  A    between atoms: C9_12  and  C10_13 
REMARK    5  A    between atoms: C10_13  and  C11_14 
ROOT
HETATM    1  N1  BTN A 300      12.069  -0.223  -8.009  1.00 17.73    -0.217 NA
HETATM    2  S1  BTN A 300      10.516   2.404  -9.309  1.00 16.59    -0.137 SA
HETATM    3  C2  BTN A 300      10.493   1.223 -10.720  1.00 17.74     0.072 C 
HETATM    4  N2  BTN A 300      12.540  -0.073 -10.136  1.00 17.92    -0.217 NA
HETATM    5  C3  BTN A 300      13.069  -0.148  -8.894  1.00 17.95     0.360 A 
HETATM    6  O3  BTN A 300      14.301  -0.145  -8.685  1.00 17.93    -0.243 OA
HETATM    7  C4  BTN A 300      11.078  -0.079 -10.122  1.00 17.65     0.141 A 
HETATM    8  C5  BTN A 300      10.750  -0.186  -8.636  1.00 17.47     0.142 A 
HETATM    9  C6  BTN A 300       9.940   1.040  -8.230  1.00 17.06     0.084 C 
ENDROOT
BRANCH   3  10
HETATM   10  C7  BTN A 300      11.165   1.545 -11.992  1.00 18.33     0.013 C 
BRANCH  10  11
HETATM   11  C8  BTN A 300      11.873   2.871 -12.262  1.00 19.24     0.002 C 
BRANCH  11  12
HETATM   12  C9  BTN A 300      11.211   3.747 -13.248  1.00 20.09     0.011 C 
BRANCH  12  13
HETATM   13  C10 BTN A 300       9.762   4.170 -12.824  1.00 20.77     0.098 C 
BRANCH  13  14
HETATM   14  C11 BTN A 300       8.823   4.107 -13.976  1.00 21.57     0.185 C 
HETATM   15  O11 BTN A 300       8.794   3.205 -14.823  1.00 21.65    -0.647 OA
HETATM   16  O12 BTN A 300       8.375   5.288 -14.354  1.00 22.67    -0.647 OA
ENDBRANCH  13  14
ENDBRANCH  12  13
ENDBRANCH  11  12
ENDBRANCH  10  11
ENDBRANCH   3  10
TORSDOF 5
ENDMDL
