MODEL 1
REMARK VINA RESULT:      -4.4      0.000      0.000
REMARK  5 active torsions:
REMARK  status: ('A' for Active; 'I' for Inactive)
REMARK    1  A    between atoms: C2_3  and  C7_10 
REMARK    2  A    between atoms: C7_10  and  C8_11 
REMARK    3  A    between atoms: C8_11  and  C9_12 
REMARK    4  A    between atoms: C9_12  and  C10_13 
REMARK    5  A    between atoms: C10_13  and  C11_14 
ROOT
HETATM    1  N1  BTN A 300      19.089  15.010 -13.041  1.00 17.73    -0.217 NA
HETATM    2  S1  BTN A 300      22.230  15.342 -12.028  1.00 16.59    -0.137 SA
HETATM    3  C2  BTN A 300      22.259  13.664 -12.782  1.00 17.74     0.072 C 
HETATM    4  N2  BTN A 300      19.867  13.067 -12.417  1.00 17.92    -0.217 NA
HETATM    5  C3  BTN A 300      18.874  13.966 -12.233  1.00 17.95     0.360 A 
HETATM    6  O3  BTN A 300      17.940  13.782 -11.424  1.00 17.93    -0.243 OA
HETATM    7  C4  BTN A 300      20.849  13.514 -13.403  1.00 17.65     0.141 A 
HETATM    8  C5  BTN A 300      20.305  14.870 -13.840  1.00 17.47     0.142 A 
HETATM    9  C6  BTN A 300      21.346  15.936 -13.518  1.00 17.06     0.084 C 
ENDROOT
BRANCH   3  10
HETATM   10  C7  BTN A 300      22.589  12.474 -11.976  1.00 18.33     0.013 C 
BRANCH  10  11
HETATM   11  C8  BTN A 300      23.904  11.707 -12.100  1.00 19.24     0.002 C 
BRANCH  11  12
HETATM   12  C9  BTN A 300      24.691  12.004 -13.312  1.00 20.09     0.011 C 
BRANCH  12  13
HETATM   13  C10 BTN A 300      25.115  10.718 -14.103  1.00 20.77     0.098 C 
BRANCH  13  14
HETATM   14  C11 BTN A 300      24.171  10.434 -15.217  1.00 21.57     0.185 C 
HETATM   15  O11 BTN A 300      23.018  10.003 -15.081  1.00 21.65    -0.647 OA
HETATM   16  O12 BTN A 300      24.771  10.167 -16.361  1.00 22.67    -0.647 OA
ENDBRANCH  13  14
ENDBRANCH  12  13
ENDBRANCH  11  12
ENDBRANCH  10  11
ENDBRANCH   3  10
TORSDOF 5
ENDMDL
