MODEL 1
REMARK VINA RESULT:      -7.1      0.000      0.000
REMARK  5 active torsions:
REMARK  status: ('A' for Active; 'I' for Inactive)
REMARK    1  A    between atoms: C2_3  and  C7_10 
REMARK    2  A    between atoms: C7_10  and  C8_11 
REMARK    3  A    between atoms: C8_11  and  C9_12 
REMARK    4  A    between atoms: C9_12  and  C10_13 
REMARK    5  A    between atoms: C10_13  and  C11_14 
ROOT
HETATM    1  N1  BTN A 300      11.877  -0.576  -8.032  1.00 17.73    -0.217 NA
HETATM    2  S1  BTN A 300      10.789   2.428  -8.924  1.00 16.59    -0.137 SA
HETATM    3  C2  BTN A 300      10.965   1.597 -10.555  1.00 17.74     0.072 C 
HETATM    4  N2  BTN A 300      12.766  -0.014  -9.946  1.00 17.92    -0.217 NA
HETATM    5  C3  BTN A 300      13.034  -0.419  -8.685  1.00 17.95     0.360 A 
HETATM    6  O3  BTN A 300      14.198  -0.598  -8.267  1.00 17.93    -0.243 OA
HETATM    7  C4  BTN A 300      11.333   0.139 -10.190  1.00 17.65     0.141 A 
HETATM    8  C5  BTN A 300      10.712  -0.256  -8.854  1.00 17.47     0.142 A 
HETATM    9  C6  BTN A 300       9.922   0.933  -8.318  1.00 17.06     0.084 C 
ENDROOT
BRANCH   3  10
HETATM   10  C7  BTN A 300      11.894   2.116 -11.577  1.00 18.33     0.013 C 
BRANCH  10  11
HETATM   11  C8  BTN A 300      11.467   3.035 -12.719  1.00 19.24     0.002 C 
BRANCH  11  12
HETATM   12  C9  BTN A 300      10.229   3.801 -12.478  1.00 20.09     0.011 C 
BRANCH  12  13
HETATM   13  C10 BTN A 300       9.925   4.853 -13.600  1.00 20.77     0.098 C 
BRANCH  13  14
HETATM   14  C11 BTN A 300       8.659   4.532 -14.312  1.00 21.57     0.185 C 
HETATM   15  O11 BTN A 300       7.530   4.894 -13.956  1.00 21.65    -0.647 OA
HETATM   16  O12 BTN A 300       8.727   3.432 -15.036  1.00 22.67    -0.647 OA
ENDBRANCH  13  14
ENDBRANCH  12  13
ENDBRANCH  11  12
ENDBRANCH  10  11
ENDBRANCH   3  10
TORSDOF 5
ENDMDL
