MODEL 1
REMARK VINA RESULT:      -7.1      0.000      0.000
REMARK  5 active torsions:
REMARK  status: ('A' for Active; 'I' for Inactive)
REMARK    1  A    between atoms: C2_3  and  C7_10 
REMARK    2  A    between atoms: C7_10  and  C8_11 
REMARK    3  A    between atoms: C8_11  and  C9_12 
REMARK    4  A    between atoms: C9_12  and  C10_13 
REMARK    5  A    between atoms: C10_13  and  C11_14 
ROOT
HETATM    1  N1  BTN A 300      11.880  -0.667  -8.138  1.00 17.73    -0.217 NA
HETATM    2  S1  BTN A 300      10.755   2.350  -8.935  1.00 16.59    -0.137 SA
HETATM    3  C2  BTN A 300      11.003   1.596 -10.595  1.00 17.74     0.072 C 
HETATM    4  N2  BTN A 300      12.819  -0.001  -9.994  1.00 17.92    -0.217 NA
HETATM    5  C3  BTN A 300      13.054  -0.456  -8.743  1.00 17.95     0.360 A 
HETATM    6  O3  BTN A 300      14.208  -0.629  -8.294  1.00 17.93    -0.243 OA
HETATM    7  C4  BTN A 300      11.392   0.132 -10.281  1.00 17.65     0.141 A 
HETATM    8  C5  BTN A 300      10.736  -0.335  -8.985  1.00 17.47     0.142 A 
HETATM    9  C6  BTN A 300       9.902   0.812  -8.425  1.00 17.06     0.084 C 
ENDROOT
BRANCH   3  10
HETATM   10  C7  BTN A 300      11.954   2.179 -11.560  1.00 18.33     0.013 C 
BRANCH  10  11
HETATM   11  C8  BTN A 300      11.532   3.051 -12.741  1.00 19.24     0.002 C 
BRANCH  11  12
HETATM   12  C9  BTN A 300      10.264   3.783 -12.558  1.00 20.09     0.011 C 
BRANCH  12  13
HETATM   13  C10 BTN A 300       9.946   4.770 -13.734  1.00 20.77     0.098 C 
BRANCH  13  14
HETATM   14  C11 BTN A 300       8.570   4.559 -14.258  1.00 21.57     0.185 C 
HETATM   15  O11 BTN A 300       7.527   4.865 -13.666  1.00 21.65    -0.647 OA
HETATM   16  O12 BTN A 300       8.486   3.578 -15.136  1.00 22.67    -0.647 OA
ENDBRANCH  13  14
ENDBRANCH  12  13
ENDBRANCH  11  12
ENDBRANCH  10  11
ENDBRANCH   3  10
TORSDOF 5
ENDMDL
