MODEL 1
REMARK VINA RESULT:      -4.6      0.000      0.000
REMARK  5 active torsions:
REMARK  status: ('A' for Active; 'I' for Inactive)
REMARK    1  A    between atoms: C2_3  and  C7_10 
REMARK    2  A    between atoms: C7_10  and  C8_11 
REMARK    3  A    between atoms: C8_11  and  C9_12 
REMARK    4  A    between atoms: C9_12  and  C10_13 
REMARK    5  A    between atoms: C10_13  and  C11_14 
ROOT
HETATM    1  N1  BTN A 300      28.023  -1.358   9.764  1.00 17.73    -0.217 NA
HETATM    2  S1  BTN A 300      29.756  -3.259   7.670  1.00 16.59    -0.137 SA
HETATM    3  C2  BTN A 300      28.460  -2.572   6.560  1.00 17.74     0.072 C 
HETATM    4  N2  BTN A 300      26.681  -2.213   8.268  1.00 17.92    -0.217 NA
HETATM    5  C3  BTN A 300      26.909  -2.080   9.593  1.00 17.95     0.360 A 
HETATM    6  O3  BTN A 300      26.158  -2.575  10.461  1.00 17.93    -0.243 OA
HETATM    7  C4  BTN A 300      27.706  -1.560   7.456  1.00 17.65     0.141 A 
HETATM    8  C5  BTN A 300      28.642  -0.961   8.500  1.00 17.47     0.142 A 
HETATM    9  C6  BTN A 300      30.029  -1.565   8.310  1.00 17.06     0.084 C 
ENDROOT
BRANCH   3  10
HETATM   10  C7  BTN A 300      27.500  -3.457   5.873  1.00 18.33     0.013 C 
BRANCH  10  11
HETATM   11  C8  BTN A 300      27.712  -4.959   5.697  1.00 19.24     0.002 C 
BRANCH  11  12
HETATM   12  C9  BTN A 300      27.560  -5.456   4.316  1.00 20.09     0.011 C 
BRANCH  12  13
HETATM   13  C10 BTN A 300      26.126  -6.013   4.014  1.00 20.77     0.098 C 
BRANCH  13  14
HETATM   14  C11 BTN A 300      26.189  -7.239   3.175  1.00 21.57     0.185 C 
HETATM   15  O11 BTN A 300      27.154  -8.013   3.115  1.00 21.65    -0.647 OA
HETATM   16  O12 BTN A 300      25.399  -7.195   2.119  1.00 22.67    -0.647 OA
ENDBRANCH  13  14
ENDBRANCH  12  13
ENDBRANCH  11  12
ENDBRANCH  10  11
ENDBRANCH   3  10
TORSDOF 5
ENDMDL
