MODEL 1
REMARK VINA RESULT:      -7.1      0.000      0.000
REMARK  5 active torsions:
REMARK  status: ('A' for Active; 'I' for Inactive)
REMARK    1  A    between atoms: C2_3  and  C7_10 
REMARK    2  A    between atoms: C7_10  and  C8_11 
REMARK    3  A    between atoms: C8_11  and  C9_12 
REMARK    4  A    between atoms: C9_12  and  C10_13 
REMARK    5  A    between atoms: C10_13  and  C11_14 
ROOT
HETATM    1  N1  BTN A 300      11.896  -0.697  -8.160  1.00 17.73    -0.217 NA
HETATM    2  S1  BTN A 300      10.712   2.307  -8.920  1.00 16.59    -0.137 SA
HETATM    3  C2  BTN A 300      10.970   1.576 -10.589  1.00 17.74     0.072 C 
HETATM    4  N2  BTN A 300      12.817   0.006 -10.011  1.00 17.92    -0.217 NA
HETATM    5  C3  BTN A 300      13.064  -0.458  -8.766  1.00 17.95     0.360 A 
HETATM    6  O3  BTN A 300      14.222  -0.615  -8.322  1.00 17.93    -0.243 OA
HETATM    7  C4  BTN A 300      11.387   0.116 -10.292  1.00 17.65     0.141 A 
HETATM    8  C5  BTN A 300      10.743  -0.378  -9.001  1.00 17.47     0.142 A 
HETATM    9  C6  BTN A 300       9.890   0.747  -8.425  1.00 17.06     0.084 C 
ENDROOT
BRANCH   3  10
HETATM   10  C7  BTN A 300      11.907   2.188 -11.550  1.00 18.33     0.013 C 
BRANCH  10  11
HETATM   11  C8  BTN A 300      11.477   3.153 -12.653  1.00 19.24     0.002 C 
BRANCH  11  12
HETATM   12  C9  BTN A 300      10.145   3.761 -12.469  1.00 20.09     0.011 C 
BRANCH  12  13
HETATM   13  C10 BTN A 300       9.790   4.815 -13.574  1.00 20.77     0.098 C 
BRANCH  13  14
HETATM   14  C11 BTN A 300       8.635   4.365 -14.397  1.00 21.57     0.185 C 
HETATM   15  O11 BTN A 300       8.623   3.359 -15.119  1.00 21.65    -0.647 OA
HETATM   16  O12 BTN A 300       7.815   5.342 -14.731  1.00 22.67    -0.647 OA
ENDBRANCH  13  14
ENDBRANCH  12  13
ENDBRANCH  11  12
ENDBRANCH  10  11
ENDBRANCH   3  10
TORSDOF 5
ENDMDL
