MODEL 1
REMARK VINA RESULT:      -4.3      0.000      0.000
REMARK  5 active torsions:
REMARK  status: ('A' for Active; 'I' for Inactive)
REMARK    1  A    between atoms: C2_3  and  C7_10 
REMARK    2  A    between atoms: C7_10  and  C8_11 
REMARK    3  A    between atoms: C8_11  and  C9_12 
REMARK    4  A    between atoms: C9_12  and  C10_13 
REMARK    5  A    between atoms: C10_13  and  C11_14 
ROOT
HETATM    1  N1  BTN A 300      18.900  15.066 -13.028  1.00 17.73    -0.217 NA
HETATM    2  S1  BTN A 300      22.029  15.553 -12.039  1.00 16.59    -0.137 SA
HETATM    3  C2  BTN A 300      22.118  13.850 -12.729  1.00 17.74     0.072 C 
HETATM    4  N2  BTN A 300      19.751  13.179 -12.334  1.00 17.92    -0.217 NA
HETATM    5  C3  BTN A 300      18.726  14.046 -12.181  1.00 17.95     0.360 A 
HETATM    6  O3  BTN A 300      17.800  13.859 -11.362  1.00 17.93    -0.243 OA
HETATM    7  C4  BTN A 300      20.714  13.624 -13.339  1.00 17.65     0.141 A 
HETATM    8  C5  BTN A 300      20.119  14.941 -13.826  1.00 17.47     0.142 A 
HETATM    9  C6  BTN A 300      21.121  16.057 -13.548  1.00 17.06     0.084 C 
ENDROOT
BRANCH   3  10
HETATM   10  C7  BTN A 300      22.494  12.704 -11.879  1.00 18.33     0.013 C 
BRANCH  10  11
HETATM   11  C8  BTN A 300      23.395  11.564 -12.347  1.00 19.24     0.002 C 
BRANCH  11  12
HETATM   12  C9  BTN A 300      24.160  11.835 -13.580  1.00 20.09     0.011 C 
BRANCH  12  13
HETATM   13  C10 BTN A 300      23.421  11.364 -14.881  1.00 20.77     0.098 C 
BRANCH  13  14
HETATM   14  C11 BTN A 300      23.497  12.397 -15.948  1.00 21.57     0.185 C 
HETATM   15  O11 BTN A 300      22.538  13.054 -16.374  1.00 21.65    -0.647 OA
HETATM   16  O12 BTN A 300      24.511  12.227 -16.775  1.00 22.67    -0.647 OA
ENDBRANCH  13  14
ENDBRANCH  12  13
ENDBRANCH  11  12
ENDBRANCH  10  11
ENDBRANCH   3  10
TORSDOF 5
ENDMDL
