@<TRIPOS>MOLECULE
pgl.pdb
 37 36 0 0 0
SMALL
GASTEIGER

@<TRIPOS>ATOM
      1  C5         0.1570   -2.3110    0.0610 C.3     1  GL1         0.0993
      2  C4         0.3920   -3.8190   -0.1630 C.3     1  GL1         0.1605
      3  C3         0.3990   -4.2070   -1.6490 C.3     1  GL1         0.1315
      4  O2         0.8990   -3.1470   -2.4590 O.3     1  GL1        -0.4610
      5  C2         2.0980   -3.2400   -3.1690 C.2     1  GL1         0.3041
      6  C1         2.0560   -3.5220   -4.6320 C.3     1  GL1         0.0332
      7  O1         3.2050   -3.0850   -2.5870 O.2     1  GL1        -0.2512
      8  O7         1.5580   -4.3020    0.5180 O.3     1  GL1        -0.4557
      9  C8         2.0910   -5.5960    0.4380 C.2     1  GL1         0.3044
     10  O8         1.4480   -6.5990    0.8510 O.2     1  GL1        -0.2512
     11  C9         3.4190   -5.7960   -0.2070 C.3     1  GL1         0.0332
     12  O3         1.1370   -1.7810    0.9280 O.3     1  GL1        -0.2828
     13  P1         2.1340   -0.6710    0.0900 P.3     1  GL1         0.4751
     14  O4         1.4510   -0.1720   -1.1640 O.2     1  GL1        -0.2273
     15  O5         3.5720   -1.4490   -0.3460 O.3     1  GL1        -0.3025
     16  H9         4.0460   -1.5970    0.5100 H       1  GL1         0.2220
     17  O6         2.5220    0.6760    1.0730 O.3     1  GL1        -0.2854
     18  C6         1.9200    0.5480    2.3440 C.3     1  GL1         0.0713
     19  C7         0.5510    1.2410    2.4050 C.3     1  GL1         0.0172
     20  N1        -0.4880    0.2730    2.7390 N.3     1  GL1        -0.3279
     21  H14       -1.3000    0.7930    3.1470 H       1  GL1         0.1183
     22  H15       -0.1170   -0.3410    3.5000 H       1  GL1         0.1183
     23  H         -0.8110   -2.1660    0.4930 H       1  GL1         0.0604
     24  H          0.2200   -1.8070   -0.8810 H       1  GL1         0.0604
     25  H         -0.4500   -4.3110    0.2770 H       1  GL1         0.0792
     26  H         -0.6010   -4.4370   -1.9540 H       1  GL1         0.0736
     27  H          1.0380   -5.0570   -1.7730 H       1  GL1         0.0736
     28  H          1.0380   -3.6220   -4.9470 H       1  GL1         0.0342
     29  H          2.5830   -4.4300   -4.8350 H       1  GL1         0.0342
     30  H          2.5160   -2.7160   -5.1640 H       1  GL1         0.0342
     31  H          3.8220   -4.8480   -0.4950 H       1  GL1         0.0342
     32  H          3.3050   -6.4130   -1.0740 H       1  GL1         0.0342
     33  H          4.0830   -6.2710    0.4840 H       1  GL1         0.0342
     34  H          2.5630    0.9890    3.0770 H       1  GL1         0.0578
     35  H          1.7720   -0.4940    2.5360 H       1  GL1         0.0578
     36  H          0.3340    1.6790    1.4530 H       1  GL1         0.0444
     37  H          0.5770    2.0000    3.1590 H       1  GL1         0.0444
@<TRIPOS>BOND
     1     1     2    1
     2     1    12    1
     3     1    23    1
     4     1    24    1
     5     2     3    1
     6     2     8    1
     7     2    25    1
     8     3     4    1
     9     3    26    1
    10     3    27    1
    11     4     5    1
    12     5     6    1
    13     5     7    2
    14     6    28    1
    15     6    29    1
    16     6    30    1
    17     8     9    1
    18     9    10    2
    19     9    11    1
    20    11    31    1
    21    11    32    1
    22    11    33    1
    23    12    13    1
    24    13    14    2
    25    13    15    1
    26    13    17    1
    27    15    16    1
    28    17    18    1
    29    18    19    1
    30    18    34    1
    31    18    35    1
    32    19    20    1
    33    19    36    1
    34    19    37    1
    35    20    21    1
    36    20    22    1
