MODEL 1
REMARK VINA RESULT:      -4.2      0.000      0.000
REMARK  15 active torsions:
REMARK  status: ('A' for Active; 'I' for Inactive)
REMARK    1  A    between atoms: C_1  and  C_2 
REMARK    2  A    between atoms: C_1  and  O_12 
REMARK    3  A    between atoms: C_2  and  C_3 
REMARK    4  A    between atoms: C_2  and  O_8 
REMARK    5  A    between atoms: C_3  and  O_4 
REMARK    6  A    between atoms: O_4  and  C_5 
REMARK    7  A    between atoms: C_5  and  O_7 
REMARK    8  A    between atoms: O_8  and  C_9 
REMARK    9  A    between atoms: C_9  and  O_10 
REMARK   10  A    between atoms: O_12  and  P_13 
REMARK   11  A    between atoms: P_13  and  O_14 
REMARK   12  A    between atoms: P_13  and  O_15 
REMARK   13  A    between atoms: O_17  and  C_18 
REMARK   14  A    between atoms: C_18  and  C_19 
REMARK   15  A    between atoms: C_19  and  N_20 
ROOT
HETATM    1  C   PGL     1       3.268  -0.734   1.947  1.00  0.00     0.211 C 
ENDROOT
BRANCH   1   2
HETATM    2  C   PGL     1       3.370  -1.756   0.796  1.00  0.00     0.172 C 
BRANCH   2   3
HETATM    3  C   PGL     1       2.618  -3.063   1.090  1.00  0.00     0.202 C 
BRANCH   3   4
HETATM    4  O   PGL     1       1.565  -2.854   2.026  1.00  0.00    -0.381 OA
BRANCH   4   5
HETATM    5  C   PGL     1       0.226  -3.111   1.725  1.00  0.00     0.146 C 
HETATM    6  C   PGL     1      -0.288  -4.506   1.826  1.00  0.00     0.042 C 
BRANCH   5   7
HETATM    7  O   PGL     1      -0.546  -2.177   1.374  1.00  0.00     0.000 OA
HETATM    8  H   PGL     1      -0.370  -1.945   0.469  1.00  0.00     0.000 HD
ENDBRANCH   5   7
ENDBRANCH   4   5
ENDBRANCH   3   4
ENDBRANCH   2   3
BRANCH   2   9
HETATM    9  O   PGL     1       2.991  -1.199  -0.471  1.00  0.00    -0.352 OA
BRANCH   9  10
HETATM   10  C   PGL     1       1.701  -1.196  -1.023  1.00  0.00     0.253 C 
HETATM   11  C   PGL     1       1.358  -2.196  -2.073  1.00  0.00     0.070 C 
BRANCH  10  12
HETATM   12  O   PGL     1       0.845  -0.333  -0.690  1.00  0.00    -0.372 OA
HETATM   13  H   PGL     1      -0.019  -0.727  -0.691  1.00  0.00     0.212 HD
ENDBRANCH  10  12
ENDBRANCH   9  10
ENDBRANCH   2   9
ENDBRANCH   1   2
BRANCH   1  14
HETATM   14  O   PGL     1       2.962   0.549   1.441  1.00  0.00    -0.325 OA
BRANCH  14  15
HETATM   15  P   PGL     1       1.740   1.284   2.386  1.00  0.00     0.218 P 
HETATM   16  O   PGL     1       1.489   2.910   1.916  1.00  0.00     0.000 OA
HETATM   17  H   PGL     1       2.391   2.498   2.003  1.00  0.00     0.142 HD
BRANCH  15  18
HETATM   18  O   PGL     1       2.103   1.257   3.854  1.00  0.00    -0.337 OA
HETATM   19  H   PGL     1       1.333   1.450   4.374  1.00  0.00     0.219 HD
ENDBRANCH  15  18
BRANCH  15  20
HETATM   20  O   PGL     1       0.294   0.433   2.168  1.00  0.00    -0.337 OA
HETATM   21  H   PGL     1       0.572  -0.446   1.808  1.00  0.00     0.219 HD
ENDBRANCH  15  20
BRANCH  16  22
HETATM   22  C   PGL     1       0.430   3.480   2.657  1.00  0.00     0.031 C 
BRANCH  22  23
HETATM   23  C   PGL     1      -0.709   3.967   1.750  1.00  0.00     0.267 C 
BRANCH  23  24
HETATM   24  N   PGL     1      -1.546   2.842   1.345  1.00  0.00     0.078 N 
HETATM   25  H   PGL     1      -2.544   3.159   1.354  1.00  0.00     0.312 HD
HETATM   26  H   PGL     1      -1.464   2.105   2.081  1.00  0.00     0.312 HD
ENDBRANCH  23  24
ENDBRANCH  22  23
ENDBRANCH  16  22
ENDBRANCH  14  15
ENDBRANCH   1  14
TORSDOF 15
ENDMDL
