MODEL 1
REMARK VINA RESULT:      -4.0      0.000      0.000
REMARK  15 active torsions:
REMARK  status: ('A' for Active; 'I' for Inactive)
REMARK    1  A    between atoms: C_1  and  C_2 
REMARK    2  A    between atoms: C_1  and  O_12 
REMARK    3  A    between atoms: C_2  and  C_3 
REMARK    4  A    between atoms: C_2  and  O_8 
REMARK    5  A    between atoms: C_3  and  O_4 
REMARK    6  A    between atoms: O_4  and  C_5 
REMARK    7  A    between atoms: C_5  and  O_7 
REMARK    8  A    between atoms: O_8  and  C_9 
REMARK    9  A    between atoms: C_9  and  O_10 
REMARK   10  A    between atoms: O_12  and  P_13 
REMARK   11  A    between atoms: P_13  and  O_14 
REMARK   12  A    between atoms: P_13  and  O_15 
REMARK   13  A    between atoms: O_17  and  C_18 
REMARK   14  A    between atoms: C_18  and  C_19 
REMARK   15  A    between atoms: C_19  and  N_20 
ROOT
HETATM    1  C   PGL     1     -13.052  14.756  -2.578  1.00  0.00     0.211 C 
ENDROOT
BRANCH   1   2
HETATM    2  C   PGL     1     -13.446  14.040  -3.887  1.00  0.00     0.172 C 
BRANCH   2   3
HETATM    3  C   PGL     1     -13.267  12.517  -3.810  1.00  0.00     0.202 C 
BRANCH   3   4
HETATM    4  O   PGL     1     -12.029  12.172  -3.195  1.00  0.00    -0.381 OA
BRANCH   4   5
HETATM    5  C   PGL     1     -10.927  11.715  -3.921  1.00  0.00     0.146 C 
HETATM    6  C   PGL     1     -11.026  10.427  -4.662  1.00  0.00     0.042 C 
BRANCH   5   7
HETATM    7  O   PGL     1      -9.857  12.383  -3.955  1.00  0.00     0.000 OA
HETATM    8  H   PGL     1      -9.308  12.064  -4.662  1.00  0.00     0.000 HD
ENDBRANCH   5   7
ENDBRANCH   4   5
ENDBRANCH   3   4
ENDBRANCH   2   3
BRANCH   2   9
HETATM    9  O   PGL     1     -14.762  14.398  -4.335  1.00  0.00    -0.352 OA
BRANCH   9  10
HETATM   10  C   PGL     1     -15.094  15.502  -5.133  1.00  0.00     0.253 C 
HETATM   11  C   PGL     1     -16.295  15.427  -6.013  1.00  0.00     0.070 C 
BRANCH  10  12
HETATM   12  O   PGL     1     -14.371  16.535  -5.162  1.00  0.00    -0.372 OA
HETATM   13  H   PGL     1     -14.098  16.755  -4.280  1.00  0.00     0.212 HD
ENDBRANCH  10  12
ENDBRANCH   9  10
ENDBRANCH   2   9
ENDBRANCH   1   2
BRANCH   1  14
HETATM   14  O   PGL     1     -12.228  15.870  -2.854  1.00  0.00    -0.325 OA
BRANCH  14  15
HETATM   15  P   PGL     1     -10.825  15.828  -1.877  1.00  0.00     0.218 P 
HETATM   16  O   PGL     1     -11.115  16.537  -0.347  1.00  0.00     0.000 OA
HETATM   17  H   PGL     1     -11.451  16.922  -1.201  1.00  0.00     0.142 HD
BRANCH  15  18
HETATM   18  O   PGL     1      -9.684  16.566  -2.541  1.00  0.00    -0.337 OA
HETATM   19  H   PGL     1      -8.966  15.964  -2.698  1.00  0.00     0.219 HD
ENDBRANCH  15  18
BRANCH  15  20
HETATM   20  O   PGL     1     -10.368  14.216  -1.644  1.00  0.00    -0.337 OA
HETATM   21  H   PGL     1     -11.127  13.808  -1.159  1.00  0.00     0.219 HD
ENDBRANCH  15  20
BRANCH  16  22
HETATM   22  C   PGL     1      -9.968  16.431   0.471  1.00  0.00     0.031 C 
BRANCH  22  23
HETATM   23  C   PGL     1      -9.446  17.806   0.910  1.00  0.00     0.267 C 
BRANCH  23  24
HETATM   24  N   PGL     1      -8.660  18.410  -0.162  1.00  0.00     0.078 N 
HETATM   25  H   PGL     1      -7.697  18.594   0.204  1.00  0.00     0.312 HD
HETATM   26  H   PGL     1      -9.078  19.344  -0.375  1.00  0.00     0.312 HD
ENDBRANCH  23  24
ENDBRANCH  22  23
ENDBRANCH  16  22
ENDBRANCH  14  15
ENDBRANCH   1  14
TORSDOF 15
ENDMDL
