MODEL 1
REMARK VINA RESULT:      -3.4      0.000      0.000
REMARK  15 active torsions:
REMARK  status: ('A' for Active; 'I' for Inactive)
REMARK    1  A    between atoms: C_1  and  C_2 
REMARK    2  A    between atoms: C_1  and  O_12 
REMARK    3  A    between atoms: C_2  and  C_3 
REMARK    4  A    between atoms: C_2  and  O_8 
REMARK    5  A    between atoms: C_3  and  O_4 
REMARK    6  A    between atoms: O_4  and  C_5 
REMARK    7  A    between atoms: C_5  and  O_7 
REMARK    8  A    between atoms: O_8  and  C_9 
REMARK    9  A    between atoms: C_9  and  O_10 
REMARK   10  A    between atoms: O_12  and  P_13 
REMARK   11  A    between atoms: P_13  and  O_14 
REMARK   12  A    between atoms: P_13  and  O_15 
REMARK   13  A    between atoms: O_17  and  C_18 
REMARK   14  A    between atoms: C_18  and  C_19 
REMARK   15  A    between atoms: C_19  and  N_20 
ROOT
HETATM    1  C   PGL     1       5.014 -25.665   4.640  1.00  0.00     0.211 C 
ENDROOT
BRANCH   1   2
HETATM    2  C   PGL     1       5.580 -26.345   5.904  1.00  0.00     0.172 C 
BRANCH   2   3
HETATM    3  C   PGL     1       7.115 -26.325   5.955  1.00  0.00     0.202 C 
BRANCH   3   4
HETATM    4  O   PGL     1       7.632 -25.078   5.501  1.00  0.00    -0.381 OA
BRANCH   4   5
HETATM    5  C   PGL     1       8.049 -24.071   6.374  1.00  0.00     0.146 C 
HETATM    6  C   PGL     1       9.507 -23.835   6.570  1.00  0.00     0.042 C 
BRANCH   5   7
HETATM    7  O   PGL     1       7.207 -23.364   6.991  1.00  0.00     0.000 OA
HETATM    8  H   PGL     1       6.366 -23.808   6.999  1.00  0.00     0.000 HD
ENDBRANCH   5   7
ENDBRANCH   4   5
ENDBRANCH   3   4
ENDBRANCH   2   3
BRANCH   2   9
HETATM    9  O   PGL     1       5.003 -25.829   7.112  1.00  0.00    -0.352 OA
BRANCH   9  10
HETATM   10  C   PGL     1       4.538 -26.586   8.198  1.00  0.00     0.253 C 
HETATM   11  C   PGL     1       4.544 -28.073   8.104  1.00  0.00     0.070 C 
BRANCH  10  12
HETATM   12  O   PGL     1       4.065 -26.035   9.229  1.00  0.00    -0.372 OA
HETATM   13  H   PGL     1       4.445 -25.170   9.328  1.00  0.00     0.212 HD
ENDBRANCH  10  12
ENDBRANCH   9  10
ENDBRANCH   2   9
ENDBRANCH   1   2
BRANCH   1  14
HETATM   14  O   PGL     1       4.178 -24.583   4.994  1.00  0.00    -0.325 OA
BRANCH  14  15
HETATM   15  P   PGL     1       4.759 -23.131   4.300  1.00  0.00     0.218 P 
HETATM   16  O   PGL     1       3.638 -22.491   3.177  1.00  0.00     0.000 OA
HETATM   17  H   PGL     1       3.858 -23.460   3.240  1.00  0.00     0.142 HD
BRANCH  15  18
HETATM   18  O   PGL     1       6.074 -23.362   3.590  1.00  0.00    -0.337 OA
HETATM   19  H   PGL     1       5.915 -23.498   2.664  1.00  0.00     0.219 HD
ENDBRANCH  15  18
BRANCH  15  20
HETATM   20  O   PGL     1       4.997 -21.994   5.530  1.00  0.00    -0.337 OA
HETATM   21  H   PGL     1       5.973 -21.828   5.532  1.00  0.00     0.219 HD
ENDBRANCH  15  20
BRANCH  16  22
HETATM   22  C   PGL     1       4.101 -21.258   2.667  1.00  0.00     0.031 C 
BRANCH  22  23
HETATM   23  C   PGL     1       3.082 -20.130   2.878  1.00  0.00     0.267 C 
BRANCH  23  24
HETATM   24  N   PGL     1       2.913 -19.865   4.303  1.00  0.00     0.078 N 
HETATM   25  H   PGL     1       1.892 -19.912   4.525  1.00  0.00     0.312 HD
HETATM   26  H   PGL     1       3.209 -18.878   4.480  1.00  0.00     0.312 HD
ENDBRANCH  23  24
ENDBRANCH  22  23
ENDBRANCH  16  22
ENDBRANCH  14  15
ENDBRANCH   1  14
TORSDOF 15
ENDMDL
