MODEL 1
REMARK VINA RESULT:      -4.1      0.000      0.000
REMARK  15 active torsions:
REMARK  status: ('A' for Active; 'I' for Inactive)
REMARK    1  A    between atoms: C_1  and  C_2 
REMARK    2  A    between atoms: C_1  and  O_12 
REMARK    3  A    between atoms: C_2  and  C_3 
REMARK    4  A    between atoms: C_2  and  O_8 
REMARK    5  A    between atoms: C_3  and  O_4 
REMARK    6  A    between atoms: O_4  and  C_5 
REMARK    7  A    between atoms: C_5  and  O_7 
REMARK    8  A    between atoms: O_8  and  C_9 
REMARK    9  A    between atoms: C_9  and  O_10 
REMARK   10  A    between atoms: O_12  and  P_13 
REMARK   11  A    between atoms: P_13  and  O_14 
REMARK   12  A    between atoms: P_13  and  O_15 
REMARK   13  A    between atoms: O_17  and  C_18 
REMARK   14  A    between atoms: C_18  and  C_19 
REMARK   15  A    between atoms: C_19  and  N_20 
ROOT
HETATM    1  C   PGL     1     -12.261  14.602  -1.205  1.00  0.00     0.211 C 
ENDROOT
BRANCH   1   2
HETATM    2  C   PGL     1     -12.297  13.706  -2.461  1.00  0.00     0.172 C 
BRANCH   2   3
HETATM    3  C   PGL     1     -12.777  14.455  -3.714  1.00  0.00     0.202 C 
BRANCH   3   4
HETATM    4  O   PGL     1     -13.149  15.794  -3.405  1.00  0.00    -0.381 OA
BRANCH   4   5
HETATM    5  C   PGL     1     -14.308  16.391  -3.908  1.00  0.00     0.146 C 
HETATM    6  C   PGL     1     -15.377  16.816  -2.961  1.00  0.00     0.042 C 
BRANCH   5   7
HETATM    7  O   PGL     1     -14.453  16.573  -5.147  1.00  0.00     0.000 OA
HETATM    8  H   PGL     1     -14.994  15.880  -5.508  1.00  0.00     0.000 HD
ENDBRANCH   5   7
ENDBRANCH   4   5
ENDBRANCH   3   4
ENDBRANCH   2   3
BRANCH   2   9
HETATM    9  O   PGL     1     -11.053  13.030  -2.691  1.00  0.00    -0.352 OA
BRANCH   9  10
HETATM   10  C   PGL     1     -10.792  12.092  -3.701  1.00  0.00     0.253 C 
HETATM   11  C   PGL     1     -11.707  10.927  -3.863  1.00  0.00     0.070 C 
BRANCH  10  12
HETATM   12  O   PGL     1      -9.773  12.184  -4.437  1.00  0.00    -0.372 OA
HETATM   13  H   PGL     1      -9.988  11.886  -5.313  1.00  0.00     0.212 HD
ENDBRANCH  10  12
ENDBRANCH   9  10
ENDBRANCH   2   9
ENDBRANCH   1   2
BRANCH   1  14
HETATM   14  O   PGL     1     -10.929  14.807  -0.783  1.00  0.00    -0.325 OA
BRANCH  14  15
HETATM   15  P   PGL     1     -10.423  16.397  -1.163  1.00  0.00     0.218 P 
HETATM   16  O   PGL     1      -9.386  17.021   0.046  1.00  0.00     0.000 OA
HETATM   17  H   PGL     1     -10.210  16.499   0.247  1.00  0.00     0.142 HD
BRANCH  15  18
HETATM   18  O   PGL     1     -11.611  17.322  -1.304  1.00  0.00    -0.337 OA
HETATM   19  H   PGL     1     -11.580  17.984  -0.624  1.00  0.00     0.219 HD
ENDBRANCH  15  18
BRANCH  15  20
HETATM   20  O   PGL     1      -9.581  16.366  -2.630  1.00  0.00    -0.337 OA
HETATM   21  H   PGL     1      -8.818  15.758  -2.468  1.00  0.00     0.219 HD
ENDBRANCH  15  20
BRANCH  16  22
HETATM   22  C   PGL     1      -8.922  18.305  -0.317  1.00  0.00     0.031 C 
BRANCH  22  23
HETATM   23  C   PGL     1      -8.912  19.271   0.875  1.00  0.00     0.267 C 
BRANCH  23  24
HETATM   24  N   PGL     1      -8.202  18.672   2.001  1.00  0.00     0.078 N 
HETATM   25  H   PGL     1      -8.768  18.832   2.866  1.00  0.00     0.312 HD
HETATM   26  H   PGL     1      -7.309  19.200   2.131  1.00  0.00     0.312 HD
ENDBRANCH  23  24
ENDBRANCH  22  23
ENDBRANCH  16  22
ENDBRANCH  14  15
ENDBRANCH   1  14
TORSDOF 15
ENDMDL
