MODEL 1
REMARK VINA RESULT:      -3.7      0.000      0.000
REMARK  15 active torsions:
REMARK  status: ('A' for Active; 'I' for Inactive)
REMARK    1  A    between atoms: C_1  and  C_2 
REMARK    2  A    between atoms: C_1  and  O_12 
REMARK    3  A    between atoms: C_2  and  C_3 
REMARK    4  A    between atoms: C_2  and  O_8 
REMARK    5  A    between atoms: C_3  and  O_4 
REMARK    6  A    between atoms: O_4  and  C_5 
REMARK    7  A    between atoms: C_5  and  O_7 
REMARK    8  A    between atoms: O_8  and  C_9 
REMARK    9  A    between atoms: C_9  and  O_10 
REMARK   10  A    between atoms: O_12  and  P_13 
REMARK   11  A    between atoms: P_13  and  O_14 
REMARK   12  A    between atoms: P_13  and  O_15 
REMARK   13  A    between atoms: O_17  and  C_18 
REMARK   14  A    between atoms: C_18  and  C_19 
REMARK   15  A    between atoms: C_19  and  N_20 
ROOT
HETATM    1  C   PGL     1       3.223 -18.937  15.335  1.00  0.00     0.211 C 
ENDROOT
BRANCH   1   2
HETATM    2  C   PGL     1       4.593 -18.826  14.633  1.00  0.00     0.172 C 
BRANCH   2   3
HETATM    3  C   PGL     1       5.330 -17.520  14.967  1.00  0.00     0.202 C 
BRANCH   3   4
HETATM    4  O   PGL     1       5.430 -16.676  13.825  1.00  0.00    -0.381 OA
BRANCH   4   5
HETATM    5  C   PGL     1       6.629 -16.477  13.136  1.00  0.00     0.146 C 
HETATM    6  C   PGL     1       6.796 -15.253  12.305  1.00  0.00     0.042 C 
BRANCH   5   7
HETATM    7  O   PGL     1       7.564 -17.320  13.215  1.00  0.00     0.000 OA
HETATM    8  H   PGL     1       8.343 -16.968  12.799  1.00  0.00     0.000 HD
ENDBRANCH   5   7
ENDBRANCH   4   5
ENDBRANCH   3   4
ENDBRANCH   2   3
BRANCH   2   9
HETATM    9  O   PGL     1       5.421 -19.976  14.857  1.00  0.00    -0.352 OA
BRANCH   9  10
HETATM   10  C   PGL     1       6.296 -20.562  13.929  1.00  0.00     0.253 C 
HETATM   11  C   PGL     1       7.755 -20.598  14.229  1.00  0.00     0.070 C 
BRANCH  10  12
HETATM   12  O   PGL     1       5.881 -21.009  12.826  1.00  0.00    -0.372 OA
HETATM   13  H   PGL     1       6.622 -21.256  12.286  1.00  0.00     0.212 HD
ENDBRANCH  10  12
ENDBRANCH   9  10
ENDBRANCH   2   9
ENDBRANCH   1   2
BRANCH   1  14
HETATM   14  O   PGL     1       2.229 -19.342  14.417  1.00  0.00    -0.325 OA
BRANCH  14  15
HETATM   15  P   PGL     1       1.977 -21.031  14.520  1.00  0.00     0.218 P 
HETATM   16  O   PGL     1       0.454 -21.469  13.875  1.00  0.00     0.000 OA
HETATM   17  H   PGL     1       0.595 -20.672  14.454  1.00  0.00     0.142 HD
BRANCH  15  18
HETATM   18  O   PGL     1       2.045 -21.500  15.957  1.00  0.00    -0.337 OA
HETATM   19  H   PGL     1       2.855 -21.975  16.097  1.00  0.00     0.219 HD
ENDBRANCH  15  18
BRANCH  15  20
HETATM   20  O   PGL     1       3.184 -21.820  13.634  1.00  0.00    -0.337 OA
HETATM   21  H   PGL     1       2.886 -21.754  12.692  1.00  0.00     0.219 HD
ENDBRANCH  15  20
BRANCH  16  22
HETATM   22  C   PGL     1       0.293 -22.873  13.903  1.00  0.00     0.031 C 
BRANCH  22  23
HETATM   23  C   PGL     1       0.145 -23.463  12.494  1.00  0.00     0.267 C 
BRANCH  23  24
HETATM   24  N   PGL     1       1.458 -23.784  11.943  1.00  0.00     0.078 N 
HETATM   25  H   PGL     1       1.380 -24.687  11.422  1.00  0.00     0.312 HD
HETATM   26  H   PGL     1       2.104 -23.960  12.746  1.00  0.00     0.312 HD
ENDBRANCH  23  24
ENDBRANCH  22  23
ENDBRANCH  16  22
ENDBRANCH  14  15
ENDBRANCH   1  14
TORSDOF 15
ENDMDL
