MODEL 1
REMARK VINA RESULT:      -3.3      0.000      0.000
REMARK  15 active torsions:
REMARK  status: ('A' for Active; 'I' for Inactive)
REMARK    1  A    between atoms: C_1  and  C_2 
REMARK    2  A    between atoms: C_1  and  O_12 
REMARK    3  A    between atoms: C_2  and  C_3 
REMARK    4  A    between atoms: C_2  and  O_8 
REMARK    5  A    between atoms: C_3  and  O_4 
REMARK    6  A    between atoms: O_4  and  C_5 
REMARK    7  A    between atoms: C_5  and  O_7 
REMARK    8  A    between atoms: O_8  and  C_9 
REMARK    9  A    between atoms: C_9  and  O_10 
REMARK   10  A    between atoms: O_12  and  P_13 
REMARK   11  A    between atoms: P_13  and  O_14 
REMARK   12  A    between atoms: P_13  and  O_15 
REMARK   13  A    between atoms: O_17  and  C_18 
REMARK   14  A    between atoms: C_18  and  C_19 
REMARK   15  A    between atoms: C_19  and  N_20 
ROOT
HETATM    1  C   PGL     1       0.489 -20.666  15.401  1.00  0.00     0.211 C 
ENDROOT
BRANCH   1   2
HETATM    2  C   PGL     1       0.014 -21.977  14.740  1.00  0.00     0.172 C 
BRANCH   2   3
HETATM    3  C   PGL     1      -0.982 -21.739  13.595  1.00  0.00     0.202 C 
BRANCH   3   4
HETATM    4  O   PGL     1      -0.917 -20.397  13.123  1.00  0.00    -0.381 OA
BRANCH   4   5
HETATM    5  C   PGL     1      -0.416 -20.064  11.863  1.00  0.00     0.146 C 
HETATM    6  C   PGL     1      -1.368 -19.782  10.752  1.00  0.00     0.042 C 
BRANCH   5   7
HETATM    7  O   PGL     1       0.827 -19.997  11.661  1.00  0.00     0.000 OA
HETATM    8  H   PGL     1       1.289 -20.328  12.422  1.00  0.00     0.000 HD
ENDBRANCH   5   7
ENDBRANCH   4   5
ENDBRANCH   3   4
ENDBRANCH   2   3
BRANCH   2   9
HETATM    9  O   PGL     1       1.105 -22.814  14.329  1.00  0.00    -0.352 OA
BRANCH   9  10
HETATM   10  C   PGL     1       1.926 -22.616  13.210  1.00  0.00     0.253 C 
HETATM   11  C   PGL     1       1.660 -23.394  11.967  1.00  0.00     0.070 C 
BRANCH  10  12
HETATM   12  O   PGL     1       2.916 -21.836  13.249  1.00  0.00    -0.372 OA
HETATM   13  H   PGL     1       3.187 -21.715  14.151  1.00  0.00     0.212 HD
ENDBRANCH  10  12
ENDBRANCH   9  10
ENDBRANCH   2   9
ENDBRANCH   1   2
BRANCH   1  14
HETATM   14  O   PGL     1       1.704 -20.874  16.091  1.00  0.00    -0.325 OA
BRANCH  14  15
HETATM   15  P   PGL     1       2.854 -19.691  15.639  1.00  0.00     0.218 P 
HETATM   16  O   PGL     1       4.430 -20.353  15.577  1.00  0.00     0.000 OA
HETATM   17  H   PGL     1       3.778 -20.560  16.299  1.00  0.00     0.142 HD
BRANCH  15  18
HETATM   18  O   PGL     1       2.854 -18.538  16.618  1.00  0.00    -0.337 OA
HETATM   19  H   PGL     1       3.503 -17.897  16.354  1.00  0.00     0.219 HD
ENDBRANCH  15  18
BRANCH  15  20
HETATM   20  O   PGL     1       2.457 -19.101  14.104  1.00  0.00    -0.337 OA
HETATM   21  H   PGL     1       2.239 -18.147  14.250  1.00  0.00     0.219 HD
ENDBRANCH  15  20
BRANCH  16  22
HETATM   22  C   PGL     1       5.356 -19.380  15.134  1.00  0.00     0.031 C 
BRANCH  22  23
HETATM   23  C   PGL     1       6.441 -19.988  14.235  1.00  0.00     0.267 C 
BRANCH  23  24
HETATM   24  N   PGL     1       5.834 -20.855  13.230  1.00  0.00     0.078 N 
HETATM   25  H   PGL     1       6.247 -20.615  12.299  1.00  0.00     0.312 HD
HETATM   26  H   PGL     1       4.818 -20.614  13.174  1.00  0.00     0.312 HD
ENDBRANCH  23  24
ENDBRANCH  22  23
ENDBRANCH  16  22
ENDBRANCH  14  15
ENDBRANCH   1  14
TORSDOF 15
ENDMDL
