MODEL 1
REMARK VINA RESULT:      -3.9      0.000      0.000
REMARK  15 active torsions:
REMARK  status: ('A' for Active; 'I' for Inactive)
REMARK    1  A    between atoms: C_1  and  C_2 
REMARK    2  A    between atoms: C_1  and  O_12 
REMARK    3  A    between atoms: C_2  and  C_3 
REMARK    4  A    between atoms: C_2  and  O_8 
REMARK    5  A    between atoms: C_3  and  O_4 
REMARK    6  A    between atoms: O_4  and  C_5 
REMARK    7  A    between atoms: C_5  and  O_7 
REMARK    8  A    between atoms: O_8  and  C_9 
REMARK    9  A    between atoms: C_9  and  O_10 
REMARK   10  A    between atoms: O_12  and  P_13 
REMARK   11  A    between atoms: P_13  and  O_14 
REMARK   12  A    between atoms: P_13  and  O_15 
REMARK   13  A    between atoms: O_17  and  C_18 
REMARK   14  A    between atoms: C_18  and  C_19 
REMARK   15  A    between atoms: C_19  and  N_20 
ROOT
HETATM    1  C   PGL     1       4.356 -18.162  14.984  1.00  0.00     0.211 C 
ENDROOT
BRANCH   1   2
HETATM    2  C   PGL     1       5.571 -18.457  14.080  1.00  0.00     0.172 C 
BRANCH   2   3
HETATM    3  C   PGL     1       6.497 -17.243  13.913  1.00  0.00     0.202 C 
BRANCH   3   4
HETATM    4  O   PGL     1       7.865 -17.612  14.055  1.00  0.00    -0.381 OA
BRANCH   4   5
HETATM    5  C   PGL     1       8.828 -17.331  13.083  1.00  0.00     0.146 C 
HETATM    6  C   PGL     1       9.180 -15.911  12.797  1.00  0.00     0.042 C 
BRANCH   5   7
HETATM    7  O   PGL     1       9.399 -18.262  12.453  1.00  0.00     0.000 OA
HETATM    8  H   PGL     1      10.226 -18.469  12.875  1.00  0.00     0.000 HD
ENDBRANCH   5   7
ENDBRANCH   4   5
ENDBRANCH   3   4
ENDBRANCH   2   3
BRANCH   2   9
HETATM    9  O   PGL     1       6.295 -19.624  14.494  1.00  0.00    -0.352 OA
BRANCH   9  10
HETATM   10  C   PGL     1       6.565 -20.754  13.708  1.00  0.00     0.253 C 
HETATM   11  C   PGL     1       7.901 -21.408  13.811  1.00  0.00     0.070 C 
BRANCH  10  12
HETATM   12  O   PGL     1       5.724 -21.197  12.880  1.00  0.00    -0.372 OA
HETATM   13  H   PGL     1       5.939 -22.095  12.660  1.00  0.00     0.212 HD
ENDBRANCH  10  12
ENDBRANCH   9  10
ENDBRANCH   2   9
ENDBRANCH   1   2
BRANCH   1  14
HETATM   14  O   PGL     1       4.004 -19.310  15.728  1.00  0.00    -0.325 OA
BRANCH  14  15
HETATM   15  P   PGL     1       2.627 -20.062  15.046  1.00  0.00     0.218 P 
HETATM   16  O   PGL     1       3.054 -21.496  14.215  1.00  0.00     0.000 OA
HETATM   17  H   PGL     1       3.581 -20.654  14.160  1.00  0.00     0.142 HD
BRANCH  15  18
HETATM   18  O   PGL     1       1.930 -19.133  14.078  1.00  0.00    -0.337 OA
HETATM   19  H   PGL     1       1.572 -18.392  14.551  1.00  0.00     0.219 HD
ENDBRANCH  15  18
BRANCH  15  20
HETATM   20  O   PGL     1       1.550 -20.461  16.289  1.00  0.00    -0.337 OA
HETATM   21  H   PGL     1       2.007 -20.172  17.118  1.00  0.00     0.219 HD
ENDBRANCH  15  20
BRANCH  16  22
HETATM   22  C   PGL     1       1.898 -22.140  13.719  1.00  0.00     0.031 C 
BRANCH  22  23
HETATM   23  C   PGL     1       2.126 -22.736  12.323  1.00  0.00     0.267 C 
BRANCH  23  24
HETATM   24  N   PGL     1       1.234 -23.871  12.110  1.00  0.00     0.078 N 
HETATM   25  H   PGL     1       1.518 -24.346  11.221  1.00  0.00     0.312 HD
HETATM   26  H   PGL     1       0.273 -23.494  11.949  1.00  0.00     0.312 HD
ENDBRANCH  23  24
ENDBRANCH  22  23
ENDBRANCH  16  22
ENDBRANCH  14  15
ENDBRANCH   1  14
TORSDOF 15
ENDMDL
