MODEL 1
REMARK VINA RESULT:      -4.1      0.000      0.000
REMARK  15 active torsions:
REMARK  status: ('A' for Active; 'I' for Inactive)
REMARK    1  A    between atoms: C_1  and  C_2 
REMARK    2  A    between atoms: C_1  and  O_12 
REMARK    3  A    between atoms: C_2  and  C_3 
REMARK    4  A    between atoms: C_2  and  O_8 
REMARK    5  A    between atoms: C_3  and  O_4 
REMARK    6  A    between atoms: O_4  and  C_5 
REMARK    7  A    between atoms: C_5  and  O_7 
REMARK    8  A    between atoms: O_8  and  C_9 
REMARK    9  A    between atoms: C_9  and  O_10 
REMARK   10  A    between atoms: O_12  and  P_13 
REMARK   11  A    between atoms: P_13  and  O_14 
REMARK   12  A    between atoms: P_13  and  O_15 
REMARK   13  A    between atoms: O_17  and  C_18 
REMARK   14  A    between atoms: C_18  and  C_19 
REMARK   15  A    between atoms: C_19  and  N_20 
ROOT
HETATM    1  C   PGL     1     -12.428  14.501  -1.373  1.00  0.00     0.211 C 
ENDROOT
BRANCH   1   2
HETATM    2  C   PGL     1     -12.437  13.658  -2.665  1.00  0.00     0.172 C 
BRANCH   2   3
HETATM    3  C   PGL     1     -13.204  14.333  -3.812  1.00  0.00     0.202 C 
BRANCH   3   4
HETATM    4  O   PGL     1     -13.658  15.630  -3.438  1.00  0.00    -0.381 OA
BRANCH   4   5
HETATM    5  C   PGL     1     -14.660  16.309  -4.134  1.00  0.00     0.146 C 
HETATM    6  C   PGL     1     -15.912  16.689  -3.421  1.00  0.00     0.042 C 
BRANCH   5   7
HETATM    7  O   PGL     1     -14.513  16.603  -5.352  1.00  0.00     0.000 OA
HETATM    8  H   PGL     1     -15.350  16.536  -5.797  1.00  0.00     0.000 HD
ENDBRANCH   5   7
ENDBRANCH   4   5
ENDBRANCH   3   4
ENDBRANCH   2   3
BRANCH   2   9
HETATM    9  O   PGL     1     -11.120  13.258  -3.071  1.00  0.00    -0.352 OA
BRANCH   9  10
HETATM   10  C   PGL     1     -10.794  12.121  -3.826  1.00  0.00     0.253 C 
HETATM   11  C   PGL     1     -11.722  10.955  -3.822  1.00  0.00     0.070 C 
BRANCH  10  12
HETATM   12  O   PGL     1      -9.709  12.044  -4.463  1.00  0.00    -0.372 OA
HETATM   13  H   PGL     1      -9.806  11.429  -5.180  1.00  0.00     0.212 HD
ENDBRANCH  10  12
ENDBRANCH   9  10
ENDBRANCH   2   9
ENDBRANCH   1   2
BRANCH   1  14
HETATM   14  O   PGL     1     -11.104  14.823  -1.003  1.00  0.00    -0.325 OA
BRANCH  14  15
HETATM   15  P   PGL     1     -10.747  16.443  -1.421  1.00  0.00     0.218 P 
HETATM   16  O   PGL     1     -10.129  17.305  -0.078  1.00  0.00     0.000 OA
HETATM   17  H   PGL     1     -10.896  16.674  -0.017  1.00  0.00     0.142 HD
BRANCH  15  18
HETATM   18  O   PGL     1     -11.983  17.155  -1.924  1.00  0.00    -0.337 OA
HETATM   19  H   PGL     1     -11.776  17.622  -2.724  1.00  0.00     0.219 HD
ENDBRANCH  15  18
BRANCH  15  20
HETATM   20  O   PGL     1      -9.580  16.447  -2.646  1.00  0.00    -0.337 OA
HETATM   21  H   PGL     1      -8.808  15.965  -2.258  1.00  0.00     0.219 HD
ENDBRANCH  15  20
BRANCH  16  22
HETATM   22  C   PGL     1      -9.774  18.619  -0.458  1.00  0.00     0.031 C 
BRANCH  22  23
HETATM   23  C   PGL     1     -10.649  19.674   0.233  1.00  0.00     0.267 C 
BRANCH  23  24
HETATM   24  N   PGL     1     -11.825  19.963  -0.581  1.00  0.00     0.078 N 
HETATM   25  H   PGL     1     -11.921  19.205  -1.296  1.00  0.00     0.312 HD
HETATM   26  H   PGL     1     -11.637  20.846  -1.109  1.00  0.00     0.312 HD
ENDBRANCH  23  24
ENDBRANCH  22  23
ENDBRANCH  16  22
ENDBRANCH  14  15
ENDBRANCH   1  14
TORSDOF 15
ENDMDL
