@<TRIPOS>MOLECULE
*****
 39 42 0 0 0
SMALL
GASTEIGER

@<TRIPOS>ATOM
      1  N         12.8000   20.0342  -17.4616 N.am    1  MEZ1       -0.2787
      2  N         10.9491   20.4913  -18.7717 N.am    1  MEZ1       -0.1955
      3  N         10.4672   22.0306  -20.2919 N.am    1  MEZ1       -0.1458
      4  N         13.2932   16.9540  -16.0268 N.am    1  MEZ1       -0.2947
      5  N         14.5026   14.5161  -15.1244 N.am    1  MEZ1       -0.2597
      6  CA        13.6245   19.2696  -16.5199 C.3     1  MEZ1        0.1727
      7  CA        13.9188   15.6365  -16.3233 C.3     1  MEZ1        0.1777
      8  CA        14.8619   14.0047  -13.7922 C.3     1  MEZ1        0.1843
      9  C         11.5373   19.7126  -17.8196 C.2     1  MEZ1        0.3115
     10  C          9.5773   20.1806  -19.1862 C.3     1  MEZ1        0.1275
     11  C         11.4184   21.5753  -19.4481 C.2     1  MEZ1        0.3327
     12  C          9.2432   21.2459  -20.2282 C.3     1  MEZ1        0.1420
     13  C          9.2623   23.3147  -22.4781 C.3     1  MEZ1        0.2000
     14  C         13.8312   17.8254  -16.9208 C.2     1  MEZ1        0.2451
     15  C         15.3108   15.6586  -15.6443 C.3     1  MEZ1        0.1509
     16  C         16.2869   14.4682  -13.4530 C.3     1  MEZ1        0.0679
     17  C         16.4420   14.6249  -11.9332 C.3     1  MEZ1        0.0131
     18  C         17.3309   13.4552  -13.9563 C.3     1  MEZ1        0.0131
     19  C         13.2963   14.4157  -15.7035 C.2     1  MEZ1        0.2471
     20  C         14.5772   12.5318  -13.5268 C.2     1  MEZ1        0.3329
     21  C         14.9228   19.9483  -16.1275 C.ar    1  MEZ1        0.0043
     22  C         15.6894   20.6320  -17.0727 C.ar    1  MEZ1       -0.0022
     23  C         16.8818   21.2473  -16.6961 C.ar    1  MEZ1       -0.0003
     24  C         17.3156   21.1751  -15.3736 C.ar    1  MEZ1       -0.0000
     25  C         16.5566   20.4874  -14.4287 C.ar    1  MEZ1       -0.0003
     26  C         15.3622   19.8764  -14.8060 C.ar    1  MEZ1       -0.0022
     27  O         10.9481   18.7848  -17.2970 O.2     1  MEZ1       -0.2521
     28  O         12.5092   22.0949  -19.3078 O.2     1  MEZ1       -0.2503
     29  O         10.3042   24.5391  -20.4245 O.2     1  MEZ1       -0.1541
     30  O         11.8443   23.3743  -21.9724 O.2     1  MEZ1       -0.1541
     31  O         14.3204   17.5250  -17.9968 O.2     1  MEZ1       -0.2729
     32  O         12.2875   14.1151  -15.0987 O.2     1  MEZ1       -0.2730
     33  O         14.6545   11.7686  -14.5865 O.3     1  MEZ1       -0.4790
     34  OXT       14.4281   12.0794  -12.4111 O.2     1  MEZ1       -0.2484
     35  S         10.5801   23.4297  -21.2934 S.O2    1  MEZ1        0.0621
     36  S         16.4923   16.0543  -14.3058 S.3     1  MEZ1       -0.1185
     37  H         13.2488   20.8068  -17.9312 H       1  MEZ1        0.1517
     38  H         12.9909   17.2373  -15.1079 H       1  MEZ1        0.1500
     39  H         14.7678   12.3613  -15.3495 H       1  MEZ1        0.2951
@<TRIPOS>BOND
     1    13    35    1
     2    30    35    2
     3    35     3    1
     4    35    29    2
     5     3    12    1
     6     3    11   am
     7    12    10    1
     8    11    28    2
     9    11     2   am
    10    10     2    1
    11     2     9   am
    12    31    14    2
    13    37     1    1
    14     9     1   am
    15     9    27    2
    16     1     6    1
    17    14     6    1
    18    14     4   am
    19    22    23   ar
    20    22    21   ar
    21    23    24   ar
    22     6    21    1
    23     7     4    1
    24     7    15    1
    25     7    19    1
    26     4    38    1
    27    21    26   ar
    28    15     5    1
    29    15    36    1
    30    19     5   am
    31    19    32    2
    32    24    25   ar
    33    39    33    1
    34     5     8    1
    35    26    25   ar
    36    36    16    1
    37    33    20    1
    38    18    16    1
    39     8    16    1
    40     8    20    1
    41    16    17    1
    42    20    34    2
