MODEL 1
REMARK VINA RESULT:    -8.064      0.000      0.000
REMARK INTER + INTRA:         -10.274
REMARK INTER:                  -9.714
REMARK INTRA:                  -0.560
REMARK UNBOUND:                -0.560
REMARK  5 active torsions:
REMARK  status: ('A' for Active; 'I' for Inactive)
REMARK    1  A    between atoms: C7_9  and  C18_24 
REMARK    2  A    between atoms: C8_10  and  O2_11 
REMARK    3  A    between atoms: C12_15  and  N2_16 
REMARK    4  A    between atoms: C18_24  and  O3_25 
REMARK    5  A    between atoms: C18_24  and  O4_26 
ROOT
HETATM    1  C1  LEV     1      15.848  17.529 -11.377  1.00  0.00     0.045 C 
HETATM    2  C2  LEV     1      16.332  17.474 -12.828  1.00  0.00     0.243 C 
HETATM    3  C3  LEV     1      17.879  17.584 -12.886  1.00  0.00     0.203 C 
HETATM    4  O1  LEV     1      18.532  16.421 -12.410  1.00  0.00    -0.379 OA
HETATM    5  C4  LEV     1      18.009  15.207 -12.945  1.00  0.00     0.191 C 
HETATM    6  C5  LEV     1      16.899  15.391 -14.015  1.00  0.00     0.261 C 
HETATM    7  N1  LEV     1      15.821  16.223 -13.452  1.00  0.00     0.103 N 
HETATM    8  C6  LEV     1      14.789  16.503 -14.471  1.00  0.00     0.285 C 
HETATM    9  C7  LEV     1      14.138  15.188 -14.955  1.00  0.00     0.098 C 
HETATM   10  C8  LEV     1      15.222  14.219 -15.499  1.00  0.00     0.135 C 
HETATM   11  C9  LEV     1      16.345  14.017 -14.454  1.00  0.00     0.054 C 
HETATM   12  C10 LEV     1      17.487  13.139 -15.017  1.00  0.00     0.049 C 
HETATM   13  C11 LEV     1      18.616  12.966 -13.987  1.00  0.00     0.206 C 
HETATM   14  C12 LEV     1      19.155  14.353 -13.534  1.00  0.00     0.287 C 
HETATM   15  F1  LEV     1      18.116  12.241 -12.917  1.00  0.00    -0.247 F 
ENDROOT
BRANCH  14  16
HETATM   16  N2  LEV     1      20.327  14.304 -12.615  1.00  0.00     0.102 N 
HETATM   17  C13 LEV     1      20.017  14.064 -11.194  1.00  0.00     0.303 C 
HETATM   18  C14 LEV     1      21.278  14.293 -10.350  1.00  0.00     0.302 C 
HETATM   19  N3  LEV     1      22.412  13.456 -10.796  1.00  0.00     0.087 N 
HETATM   20  C15 LEV     1      22.650  13.572 -12.251  1.00  0.00     0.302 C 
HETATM   21  C17 LEV     1      22.288  12.055 -10.359  1.00  0.00     0.310 C 
HETATM   22  C16 LEV     1      21.370  13.370 -13.075  1.00  0.00     0.303 C 
ENDBRANCH  14  16
BRANCH  10  23
HETATM   23  O2  LEV     1      14.653  12.983 -15.861  1.00  0.00    -0.395 OA
HETATM   24  H6  LEV     1      15.369  12.432 -16.273  1.00  0.00     0.210 HD
ENDBRANCH  10  23
BRANCH   9  25
HETATM   25  C18 LEV     1      13.036  15.454 -16.009  1.00  0.00     0.262 C 
BRANCH  25  26
HETATM   26  O3  LEV     1      11.918  14.647 -15.754  1.00  0.00    -0.371 OA
HETATM   27  H12 LEV     1      11.124  15.240 -15.812  1.00  0.00     0.212 HD
ENDBRANCH  25  26
BRANCH  25  28
HETATM   28  O4  LEV     1      13.518  15.182 -17.301  1.00  0.00    -0.371 OA
HETATM   29  H20 LEV     1      14.509  15.181 -17.243  1.00  0.00     0.212 HD
ENDBRANCH  25  28
ENDBRANCH   9  25
TORSDOF 5
ENDMDL
