MODEL 1
REMARK VINA RESULT:    -8.077      0.000      0.000
REMARK INTER + INTRA:         -15.512
REMARK INTER:                 -13.506
REMARK INTRA:                  -2.005
REMARK UNBOUND:                -2.005
REMARK  16 active torsions:
REMARK  status: ('A' for Active; 'I' for Inactive)
REMARK    1  A    between atoms: C3_3  and  C20_33 
REMARK    2  A    between atoms: C5_7  and  N2_10 
REMARK    3  A    between atoms: C6_8  and  O1_9 
REMARK    4  A    between atoms: N2_10  and  C7_11 
REMARK    5  A    between atoms: C7_11  and  O2_12 
REMARK    6  A    between atoms: C7_11  and  C8_13 
REMARK    7  A    between atoms: C8_13  and  C9_14 
REMARK    8  A    between atoms: C8_13  and  N3_20 
REMARK    9  A    between atoms: N3_20  and  C15_21 
REMARK   10  A    between atoms: C15_21  and  O3_22 
REMARK   11  A    between atoms: C15_21  and  N4_23 
REMARK   12  A    between atoms: C18_27  and  O4_28 
REMARK   13  A    between atoms: S2_29  and  O5_30 
REMARK   14  A    between atoms: S2_29  and  O6_31 
REMARK   15  A    between atoms: C20_33  and  O7_34 
REMARK   16  A    between atoms: C20_33  and  O8_35 
ROOT
HETATM    1  C8  MEZ     1      13.800  19.978 -17.863  1.00  0.00     0.288 C 
ENDROOT
BRANCH   1   2
HETATM    2  C7  MEZ     1      12.754  19.644 -18.984  1.00  0.00     0.388 C 
BRANCH   2   3
HETATM    3  N2  MEZ     1      12.303  20.853 -19.703  1.00  0.00     0.126 N 
HETATM    4  H7  MEZ     1      12.728  21.709 -19.278  1.00  0.00     0.320 HD
BRANCH   3   5
HETATM    5  C5  MEZ     1      10.838  20.969 -19.855  1.00  0.00     0.325 A 
HETATM    6  C4  MEZ     1      10.198  22.296 -19.423  1.00  0.00     0.326 A 
HETATM    7  N1  MEZ     1       9.887  22.698 -20.800  1.00  0.00     0.146 N 
HETATM    8  S1  MEZ     1      11.247  23.527 -18.574  1.00  0.00    -0.119 SA
HETATM    9  C3  MEZ     1      10.669  23.910 -21.144  1.00  0.00     0.299 C 
HETATM   10  C6  MEZ     1      10.427  21.395 -21.261  1.00  0.00     0.395 A 
HETATM   11  C2  MEZ     1      10.846  24.748 -19.849  1.00  0.00     0.039 C 
HETATM   12  C1  MEZ     1       9.565  25.491 -19.419  1.00  0.00     0.029 C 
HETATM   13  C21 MEZ     1      12.020  25.741 -19.937  1.00  0.00     0.029 C 
BRANCH   9  14
HETATM   14  C20 MEZ     1       9.955  24.647 -22.307  1.00  0.00     0.289 C 
BRANCH  14  15
HETATM   15  O7  MEZ     1       8.939  23.832 -22.834  1.00  0.00    -0.369 OA
HETATM   16  H18 MEZ     1       8.404  23.511 -22.062  1.00  0.00     0.212 HD
ENDBRANCH  14  15
BRANCH  14  17
HETATM   17  O8  MEZ     1      10.857  24.995 -23.325  1.00  0.00    -0.369 OA
HETATM   18  H22 MEZ     1      10.666  25.938 -23.573  1.00  0.00     0.212 HD
ENDBRANCH  14  17
ENDBRANCH   9  14
BRANCH  10  19
HETATM   19  O1  MEZ     1      11.506  21.484 -22.158  1.00  0.00    -0.366 OA
HETATM   20  H2  MEZ     1      11.476  22.399 -22.540  1.00  0.00     0.212 HD
ENDBRANCH  10  19
ENDBRANCH   3   5
ENDBRANCH   2   3
BRANCH   2  21
HETATM   21  O2  MEZ     1      13.232  18.678 -19.892  1.00  0.00    -0.366 OA
HETATM   22  H4  MEZ     1      14.062  18.284 -19.517  1.00  0.00     0.212 HD
ENDBRANCH   2  21
ENDBRANCH   1   2
BRANCH   1  23
HETATM   23  C9  MEZ     1      14.280  21.465 -17.823  1.00  0.00     0.023 C 
HETATM   24  C10 MEZ     1      14.546  22.014 -16.405  1.00  0.00     0.007 C 
HETATM   25  C11 MEZ     1      14.707  23.548 -16.422  1.00  0.00     0.000 C 
HETATM   26  C12 MEZ     1      15.333  24.084 -17.726  1.00  0.00     0.000 C 
HETATM   27  C13 MEZ     1      16.247  23.047 -18.391  1.00  0.00     0.000 C 
HETATM   28  C14 MEZ     1      15.480  21.762 -18.767  1.00  0.00     0.007 C 
ENDBRANCH   1  23
BRANCH   1  29
HETATM   29  N3  MEZ     1      13.275  19.635 -16.518  1.00  0.00     0.152 N 
HETATM   30  H14 MEZ     1      12.244  19.791 -16.426  1.00  0.00     0.322 HD
BRANCH  29  31
HETATM   31  C15 MEZ     1      13.587  18.255 -16.110  1.00  0.00     0.600 C 
BRANCH  31  32
HETATM   32  O3  MEZ     1      12.443  17.669 -15.535  1.00  0.00    -0.345 OA
HETATM   33  H12 MEZ     1      11.767  18.386 -15.425  1.00  0.00     0.214 HD
ENDBRANCH  31  32
BRANCH  31  34
HETATM   34  N4  MEZ     1      14.669  18.279 -15.105  1.00  0.00     0.198 N 
HETATM   35  C16 MEZ     1      14.805  17.020 -14.382  1.00  0.00     0.304 C 
HETATM   36  C17 MEZ     1      15.424  17.392 -13.051  1.00  0.00     0.168 C 
HETATM   37  N5  MEZ     1      15.224  18.824 -12.868  1.00  0.00    -0.280 N 
HETATM   38  C18 MEZ     1      14.511  19.294 -14.051  1.00  0.00     0.480 C 
HETATM   39  S2  MEZ     1      15.657  19.169 -11.550  1.00  0.00     0.045 S 
HETATM   40  C19 MEZ     1      17.403  20.397 -12.504  1.00  0.00     0.150 C 
BRANCH  38  41
HETATM   41  O4  MEZ     1      13.160  19.487 -13.706  1.00  0.00    -0.352 OA
HETATM   42  H14 MEZ     1      12.738  19.984 -14.454  1.00  0.00     0.214 HD
ENDBRANCH  38  41
BRANCH  39  43
HETATM   43  O5  MEZ     1      14.593  21.553 -11.352  1.00  0.00    -0.312 OA
HETATM   44  H15 MEZ     1      15.243  22.131 -10.880  1.00  0.00     0.230 HD
ENDBRANCH  39  43
BRANCH  39  45
HETATM   45  O6  MEZ     1      14.233  19.454 -10.539  1.00  0.00    -0.312 OA
HETATM   46  H16 MEZ     1      13.324  19.400 -10.927  1.00  0.00     0.230 HD
ENDBRANCH  39  45
ENDBRANCH  31  34
ENDBRANCH  29  31
ENDBRANCH   1  29
TORSDOF 16
ENDMDL
