MODEL 1
REMARK VINA RESULT:    -6.921      0.000      0.000
REMARK INTER + INTRA:          -8.849
REMARK INTER:                  -8.337
REMARK INTRA:                  -0.513
REMARK UNBOUND:                -0.513
REMARK  5 active torsions:
REMARK  status: ('A' for Active; 'I' for Inactive)
REMARK    1  A    between atoms: C2_2  and  N1_3 
REMARK    2  A    between atoms: C4_5  and  C12_15 
REMARK    3  A    between atoms: C5_6  and  O1_7 
REMARK    4  A    between atoms: C12_15  and  O2_16 
REMARK    5  A    between atoms: C12_15  and  O3_17 
ROOT
HETATM    1  N1  NDX     1      13.670  17.878 -16.297  1.00  0.00     0.122 N 
HETATM    2  C3  NDX     1      12.792  17.203 -17.273  1.00  0.00     0.287 C 
HETATM    3  C4  NDX     1      11.916  16.156 -16.563  1.00  0.00     0.098 C 
HETATM    4  C5  NDX     1      12.829  15.111 -15.875  1.00  0.00     0.136 C 
HETATM    5  C6  NDX     1      13.843  15.800 -14.930  1.00  0.00     0.079 C 
HETATM    6  C7  NDX     1      14.618  16.928 -15.660  1.00  0.00     0.460 C 
HETATM    7  N2  NDX     1      15.492  17.642 -14.701  1.00  0.00     0.122 N 
HETATM    8  C8  NDX     1      16.236  16.781 -13.753  1.00  0.00     0.219 C 
HETATM    9  C9  NDX     1      16.248  15.298 -14.164  1.00  0.00     0.036 C 
HETATM   10  C10 NDX     1      14.818  14.761 -14.313  1.00  0.00     0.013 C 
HETATM   11  C11 NDX     1      17.665  17.309 -13.623  1.00  0.00     0.042 C 
HETATM   12  H7  NDX     1      14.901  18.299 -14.137  1.00  0.00     0.319 HD
ENDROOT
BRANCH   3  13
HETATM   13  C12 NDX     1      10.903  15.527 -17.557  1.00  0.00     0.262 C 
BRANCH  13  14
HETATM   14  O2  NDX     1      11.530  14.595 -18.403  1.00  0.00    -0.371 OA
HETATM   15  H12 NDX     1      12.260  14.164 -17.887  1.00  0.00     0.212 HD
ENDBRANCH  13  14
BRANCH  13  16
HETATM   16  O3  NDX     1       9.832  14.920 -16.877  1.00  0.00    -0.371 OA
HETATM   17  H12 NDX     1      10.102  14.844 -15.924  1.00  0.00     0.212 HD
ENDBRANCH  13  16
ENDBRANCH   3  13
BRANCH   4  18
HETATM   18  O1  NDX     1      12.070  14.158 -15.170  1.00  0.00    -0.394 OA
HETATM   19  H4  NDX     1      12.391  13.259 -15.442  1.00  0.00     0.210 HD
ENDBRANCH   4  18
BRANCH   1  20
HETATM   20  C2  NDX     1      14.316  19.081 -16.884  1.00  0.00     0.271 C 
HETATM   21  C1  NDX     1      13.967  19.339 -18.356  1.00  0.00     0.037 C 
ENDBRANCH   1  20
TORSDOF 5
ENDMDL
