MODEL 1
REMARK VINA RESULT:    -8.752      0.000      0.000
REMARK INTER + INTRA:         -18.676
REMARK INTER:                 -16.683
REMARK INTRA:                  -1.994
REMARK UNBOUND:                -1.994
REMARK  22 active torsions:
REMARK  status: ('A' for Active; 'I' for Inactive)
REMARK    1  A    between atoms: C2_2  and  N6_42 
REMARK    2  A    between atoms: C3_3  and  O13_41 
REMARK    3  A    between atoms: C4_4  and  O5_20 
REMARK    4  A    between atoms: C5_5  and  O1_8 
REMARK    5  A    between atoms: C6_6  and  N1_7 
REMARK    6  A    between atoms: O1_8  and  C7_9 
REMARK    7  A    between atoms: C8_10  and  N3_19 
REMARK    8  A    between atoms: C9_11  and  O4_18 
REMARK    9  A    between atoms: C10_12  and  O3_17 
REMARK   10  A    between atoms: C11_13  and  C12_15 
REMARK   11  A    between atoms: C12_15  and  N2_16 
REMARK   12  A    between atoms: O5_20  and  C13_21 
REMARK   13  A    between atoms: C14_22  and  O12_40 
REMARK   14  A    between atoms: C15_23  and  O8_28 
REMARK   15  A    between atoms: C16_24  and  C17_26 
REMARK   16  A    between atoms: C17_26  and  O7_27 
REMARK   17  A    between atoms: O8_28  and  C18_29 
REMARK   18  A    between atoms: C19_30  and  N5_39 
REMARK   19  A    between atoms: C20_31  and  O11_38 
REMARK   20  A    between atoms: C21_32  and  O10_37 
REMARK   21  A    between atoms: C22_33  and  C23_35 
REMARK   22  A    between atoms: C23_35  and  N4_36 
ROOT
HETATM    1  C1  NEO     1      16.124  18.858 -11.315  1.00  0.00     0.076 C 
HETATM    2  C2  NEO     1      15.116  19.812 -11.973  1.00  0.00     0.251 C 
HETATM    3  C3  NEO     1      15.047  19.564 -13.496  1.00  0.00     0.182 C 
HETATM    4  C4  NEO     1      14.682  18.093 -13.788  1.00  0.00     0.186 C 
HETATM    5  C5  NEO     1      15.703  17.129 -13.144  1.00  0.00     0.189 C 
HETATM    6  C6  NEO     1      15.782  17.384 -11.612  1.00  0.00     0.251 C 
ENDROOT
BRANCH   4   7
HETATM    7  O5  NEO     1      14.683  17.890 -15.196  1.00  0.00    -0.348 OA
BRANCH   7   8
HETATM    8  C13 NEO     1      13.496  18.374 -15.801  1.00  0.00     0.292 C 
HETATM    9  C14 NEO     1      13.781  18.789 -17.236  1.00  0.00     0.205 C 
HETATM   10  C15 NEO     1      12.435  18.608 -17.897  1.00  0.00     0.189 C 
HETATM   11  C16 NEO     1      11.838  17.457 -17.073  1.00  0.00     0.180 C 
HETATM   12  O6  NEO     1      12.532  17.345 -15.844  1.00  0.00    -0.348 OA
BRANCH   9  13
HETATM   13  O12 NEO     1      14.299  20.094 -17.358  1.00  0.00    -0.388 OA
HETATM   14  H43 NEO     1      13.816  20.693 -16.732  1.00  0.00     0.210 HD
ENDBRANCH   9  13
BRANCH  10  15
HETATM   15  O8  NEO     1      11.624  19.759 -17.703  1.00  0.00    -0.348 OA
BRANCH  15  16
HETATM   16  C18 NEO     1      11.133  20.262 -18.928  1.00  0.00     0.296 C 
HETATM   17  C19 NEO     1      12.042  21.430 -19.381  1.00  0.00     0.303 C 
HETATM   18  C20 NEO     1      11.480  22.088 -20.661  1.00  0.00     0.187 C 
HETATM   19  C21 NEO     1       9.966  22.365 -20.537  1.00  0.00     0.179 C 
HETATM   20  C22 NEO     1       9.242  21.108 -19.997  1.00  0.00     0.183 C 
HETATM   21  O9  NEO     1       9.800  20.719 -18.754  1.00  0.00    -0.349 OA
BRANCH  17  22
HETATM   22  N5  NEO     1      12.215  22.431 -18.321  1.00  0.00     0.090 N 
HETATM   23  H41 NEO     1      11.460  22.336 -17.604  1.00  0.00     0.313 HD
HETATM   24  H42 NEO     1      13.124  22.250 -17.834  1.00  0.00     0.313 HD
ENDBRANCH  17  22
BRANCH  18  25
HETATM   25  O11 NEO     1      11.702  21.249 -21.765  1.00  0.00    -0.391 OA
HETATM   26  H40 NEO     1      12.538  20.746 -21.584  1.00  0.00     0.210 HD
ENDBRANCH  18  25
BRANCH  19  27
HETATM   27  O10 NEO     1       9.737  23.455 -19.681  1.00  0.00    -0.390 OA
HETATM   28  H39 NEO     1      10.487  24.089 -19.818  1.00  0.00     0.210 HD
ENDBRANCH  19  27
BRANCH  20  29
HETATM   29  C23 NEO     1       7.728  21.342 -19.794  1.00  0.00     0.301 C 
BRANCH  29  30
HETATM   30  N4  NEO     1       7.397  21.750 -18.430  1.00  0.00     0.080 N 
HETATM   31  H37 NEO     1       6.503  22.290 -18.437  1.00  0.00     0.312 HD
HETATM   32  H38 NEO     1       7.268  20.902 -17.831  1.00  0.00     0.312 HD
ENDBRANCH  29  30
ENDBRANCH  20  29
ENDBRANCH  15  16
ENDBRANCH  10  15
BRANCH  11  33
HETATM   33  C17 NEO     1      11.884  16.112 -17.820  1.00  0.00     0.198 C 
BRANCH  33  34
HETATM   34  O7  NEO     1      13.091  15.439 -17.577  1.00  0.00    -0.398 OA
HETATM   35  H29 NEO     1      13.491  15.844 -16.764  1.00  0.00     0.209 HD
ENDBRANCH  33  34
ENDBRANCH  11  33
ENDBRANCH   7   8
ENDBRANCH   4   7
BRANCH   3  36
HETATM   36  O13 NEO     1      14.074  20.410 -14.055  1.00  0.00    -0.391 OA
HETATM   37  H44 NEO     1      13.535  19.862 -14.683  1.00  0.00     0.210 HD
ENDBRANCH   3  36
BRANCH   5  38
HETATM   38  O1  NEO     1      15.246  15.810 -13.403  1.00  0.00    -0.349 OA
BRANCH  38  39
HETATM   39  C7  NEO     1      15.728  15.271 -14.630  1.00  0.00     0.296 C 
HETATM   40  C8  NEO     1      14.961  13.986 -14.990  1.00  0.00     0.303 C 
HETATM   41  C9  NEO     1      15.256  12.894 -13.943  1.00  0.00     0.187 C 
HETATM   42  C10 NEO     1      16.776  12.727 -13.738  1.00  0.00     0.179 C 
HETATM   43  C11 NEO     1      17.431  14.109 -13.482  1.00  0.00     0.183 C 
HETATM   44  O2  NEO     1      17.119  15.003 -14.544  1.00  0.00    -0.349 OA
BRANCH  40  45
HETATM   45  N3  NEO     1      13.524  14.257 -15.058  1.00  0.00     0.090 N 
HETATM   46  H21 NEO     1      13.008  13.362 -14.891  1.00  0.00     0.313 HD
HETATM   47  H22 NEO     1      13.271  14.883 -14.260  1.00  0.00     0.313 HD
ENDBRANCH  40  45
BRANCH  41  48
HETATM   48  O4  NEO     1      14.664  11.672 -14.313  1.00  0.00    -0.391 OA
HETATM   49  H20 NEO     1      14.243  11.284 -13.502  1.00  0.00     0.210 HD
ENDBRANCH  41  48
BRANCH  42  50
HETATM   50  O3  NEO     1      16.997  11.878 -12.642  1.00  0.00    -0.390 OA
HETATM   51  H19 NEO     1      17.232  12.456 -11.870  1.00  0.00     0.210 HD
ENDBRANCH  42  50
BRANCH  43  52
HETATM   52  C12 NEO     1      18.973  14.015 -13.407  1.00  0.00     0.301 C 
BRANCH  52  53
HETATM   53  N2  NEO     1      19.537  12.994 -14.291  1.00  0.00     0.080 N 
HETATM   54  H17 NEO     1      19.335  13.238 -15.285  1.00  0.00     0.312 HD
HETATM   55  H18 NEO     1      19.111  12.062 -14.081  1.00  0.00     0.312 HD
ENDBRANCH  52  53
ENDBRANCH  43  52
ENDBRANCH  38  39
ENDBRANCH   5  38
BRANCH   2  56
HETATM   56  N6  NEO     1      15.494  21.197 -11.676  1.00  0.00     0.085 N 
HETATM   57  H45 NEO     1      15.037  21.836 -12.368  1.00  0.00     0.313 HD
HETATM   58  H46 NEO     1      15.136  21.456 -10.726  1.00  0.00     0.313 HD
ENDBRANCH   2  56
BRANCH   6  59
HETATM   59  N1  NEO     1      16.771  16.504 -10.986  1.00  0.00     0.085 N 
HETATM   60  H8  NEO     1      17.454  16.179 -11.708  1.00  0.00     0.313 HD
HETATM   61  H9  NEO     1      17.305  17.048 -10.269  1.00  0.00     0.313 HD
ENDBRANCH   6  59
TORSDOF 22
ENDMDL
