MODEL 1
REMARK VINA RESULT:    -7.791      0.000      0.000
REMARK INTER + INTRA:         -10.246
REMARK INTER:                  -9.841
REMARK INTRA:                  -0.405
REMARK UNBOUND:                -0.405
REMARK  6 active torsions:
REMARK  status: ('A' for Active; 'I' for Inactive)
REMARK    1  A    between atoms: C2_2  and  N1_3 
REMARK    2  A    between atoms: C4_5  and  C16_21 
REMARK    3  A    between atoms: C5_6  and  O1_7 
REMARK    4  A    between atoms: C9_11  and  N2_14 
REMARK    5  A    between atoms: C16_21  and  O2_22 
REMARK    6  A    between atoms: C16_21  and  O3_23 
ROOT
HETATM    1  N1  NOR     1      13.431  17.963 -14.901  1.00  0.00     0.093 N 
HETATM    2  C3  NOR     1      12.215  18.048 -15.754  1.00  0.00     0.284 C 
HETATM    3  C4  NOR     1      12.377  17.465 -17.188  1.00  0.00     0.098 C 
HETATM    4  C5  NOR     1      13.042  16.049 -17.213  1.00  0.00     0.135 C 
HETATM    5  C6  NOR     1      13.558  15.637 -15.821  1.00  0.00     0.051 C 
HETATM    6  C7  NOR     1      14.377  14.312 -15.851  1.00  0.00     0.049 C 
HETATM    7  C8  NOR     1      15.880  14.504 -15.573  1.00  0.00     0.204 C 
HETATM    8  C9  NOR     1      16.178  15.341 -14.291  1.00  0.00     0.258 C 
HETATM    9  C10 NOR     1      15.039  16.337 -13.928  1.00  0.00     0.075 C 
HETATM   10  C11 NOR     1      14.334  16.825 -15.205  1.00  0.00     0.231 C 
HETATM   11  F1  NOR     1      16.511  13.271 -15.522  1.00  0.00    -0.247 F 
ENDROOT
BRANCH   8  12
HETATM   12  N2  NOR     1      16.642  14.502 -13.150  1.00  0.00     0.099 N 
HETATM   13  C12 NOR     1      17.179  15.315 -12.041  1.00  0.00     0.302 C 
HETATM   14  C13 NOR     1      17.844  14.403 -11.002  1.00  0.00     0.299 C 
HETATM   15  N3  NOR     1      16.899  13.398 -10.499  1.00  0.00     0.086 N 
HETATM   16  C14 NOR     1      16.335  12.612 -11.604  1.00  0.00     0.299 C 
HETATM   17  H13 NOR     1      16.119  13.887 -10.000  1.00  0.00     0.315 HD
HETATM   18  C15 NOR     1      15.661  13.521 -12.640  1.00  0.00     0.302 C 
ENDBRANCH   8  12
BRANCH   1  19
HETATM   19  C2  NOR     1      14.142  19.259 -14.802  1.00  0.00     0.268 C 
HETATM   20  C1  NOR     1      14.012  19.809 -13.386  1.00  0.00     0.037 C 
ENDBRANCH   1  19
BRANCH   4  21
HETATM   21  O1  NOR     1      12.114  15.092 -17.658  1.00  0.00    -0.395 OA
HETATM   22  H4  NOR     1      12.586  14.524 -18.323  1.00  0.00     0.210 HD
ENDBRANCH   4  21
BRANCH   3  23
HETATM   23  C16 NOR     1      13.054  18.463 -18.164  1.00  0.00     0.262 C 
BRANCH  23  24
HETATM   24  O2  NOR     1      12.539  18.289 -19.459  1.00  0.00    -0.371 OA
HETATM   25  H12 NOR     1      13.318  18.224 -20.072  1.00  0.00     0.212 HD
ENDBRANCH  23  24
BRANCH  23  26
HETATM   26  O3  NOR     1      14.440  18.260 -18.194  1.00  0.00    -0.371 OA
HETATM   27  H18 NOR     1      14.783  18.781 -18.966  1.00  0.00     0.212 HD
ENDBRANCH  23  26
ENDBRANCH   3  23
TORSDOF 6
ENDMDL
