MODEL 1
REMARK VINA RESULT:    -6.893      0.000      0.000
REMARK INTER + INTRA:         -10.295
REMARK INTER:                  -9.714
REMARK INTRA:                  -0.581
REMARK UNBOUND:                -0.581
REMARK  9 active torsions:
REMARK  status: ('A' for Active; 'I' for Inactive)
REMARK    1  A    between atoms: C3_3  and  C15_20 
REMARK    2  A    between atoms: C5_7  and  N2_10 
REMARK    3  A    between atoms: C6_8  and  O1_9 
REMARK    4  A    between atoms: N2_10  and  C7_11 
REMARK    5  A    between atoms: C7_11  and  O2_12 
REMARK    6  A    between atoms: C7_11  and  C8_13 
REMARK    7  A    between atoms: C8_13  and  C9_14 
REMARK    8  A    between atoms: C15_20  and  O3_21 
REMARK    9  A    between atoms: C15_20  and  O4_22 
ROOT
HETATM    1  C1  PEN     1       9.068  25.944 -20.405  1.00  0.00     0.029 C 
HETATM    2  C2  PEN     1      10.022  24.995 -19.644  1.00  0.00     0.039 C 
HETATM    3  C3  PEN     1      11.519  25.472 -19.516  1.00  0.00     0.299 C 
HETATM    4  N1  PEN     1      12.464  24.423 -19.960  1.00  0.00     0.146 N 
HETATM    5  C4  PEN     1      11.803  23.287 -20.603  1.00  0.00     0.326 A 
HETATM    6  S1  PEN     1       9.990  23.410 -20.532  1.00  0.00    -0.119 SA
HETATM    7  C5  PEN     1      12.435  22.269 -19.646  1.00  0.00     0.325 A 
HETATM    8  C6  PEN     1      13.028  23.499 -18.951  1.00  0.00     0.395 A 
HETATM    9  C16 PEN     1       9.416  24.770 -18.244  1.00  0.00     0.029 C 
ENDROOT
BRANCH   7  10
HETATM   10  N2  PEN     1      11.473  21.465 -18.862  1.00  0.00     0.124 N 
HETATM   11  H7  PEN     1      11.716  21.472 -17.847  1.00  0.00     0.320 HD
BRANCH  10  12
HETATM   12  C7  PEN     1      11.409  20.075 -19.348  1.00  0.00     0.354 C 
BRANCH  12  13
HETATM   13  O2  PEN     1      12.665  19.691 -19.850  1.00  0.00    -0.368 OA
HETATM   14  H4  PEN     1      13.237  20.503 -19.841  1.00  0.00     0.212 HD
ENDBRANCH  12  13
BRANCH  12  15
HETATM   15  C8  PEN     1      11.036  19.143 -18.181  1.00  0.00     0.068 C 
BRANCH  15  16
HETATM   16  C9  PEN     1      12.188  18.201 -17.759  1.00  0.00    -0.010 C 
HETATM   17  C10 PEN     1      12.806  18.674 -16.429  1.00  0.00     0.005 C 
HETATM   18  C11 PEN     1      14.042  17.837 -16.042  1.00  0.00     0.000 C 
HETATM   19  C12 PEN     1      13.983  16.383 -16.550  1.00  0.00     0.000 C 
HETATM   20  C13 PEN     1      12.541  15.882 -16.656  1.00  0.00     0.000 C 
HETATM   21  C14 PEN     1      11.717  16.724 -17.651  1.00  0.00     0.005 C 
ENDBRANCH  15  16
ENDBRANCH  12  15
ENDBRANCH  10  12
ENDBRANCH   7  10
BRANCH   8  22
HETATM   22  O1  PEN     1      12.538  23.712 -17.650  1.00  0.00    -0.366 OA
HETATM   23  H2  PEN     1      11.843  24.415 -17.728  1.00  0.00     0.212 HD
ENDBRANCH   8  22
BRANCH   3  24
HETATM   24  C15 PEN     1      11.917  26.763 -20.272  1.00  0.00     0.289 C 
BRANCH  24  25
HETATM   25  O3  PEN     1      12.543  27.674 -19.405  1.00  0.00    -0.369 OA
HETATM   26  H12 PEN     1      12.868  27.152 -18.627  1.00  0.00     0.212 HD
ENDBRANCH  24  25
BRANCH  24  27
HETATM   27  O4  PEN     1      12.747  26.468 -21.364  1.00  0.00    -0.369 OA
HETATM   28  H15 PEN     1      12.968  25.502 -21.303  1.00  0.00     0.212 HD
ENDBRANCH  24  27
ENDBRANCH   3  24
TORSDOF 9
ENDMDL
