MODEL 1
REMARK VINA RESULT:    -7.874      0.000      0.000
REMARK INTER + INTRA:         -14.818
REMARK INTER:                 -12.938
REMARK INTRA:                  -1.880
REMARK UNBOUND:                -1.880
REMARK  16 active torsions:
REMARK  status: ('A' for Active; 'I' for Inactive)
REMARK    1  A    between atoms: C2_2  and  N5_32 
REMARK    2  A    between atoms: C3_3  and  O7_21 
REMARK    3  A    between atoms: C4_4  and  O6_20 
REMARK    4  A    between atoms: C5_5  and  O1_8 
REMARK    5  A    between atoms: C6_6  and  N1_7 
REMARK    6  A    between atoms: O1_8  and  C7_9 
REMARK    7  A    between atoms: C8_10  and  O5_19 
REMARK    8  A    between atoms: C9_11  and  N2_18 
REMARK    9  A    between atoms: C10_12  and  O4_17 
REMARK   10  A    between atoms: C11_13  and  C12_15 
REMARK   11  A    between atoms: C12_15  and  O3_16 
REMARK   12  A    between atoms: O7_21  and  C13_22 
REMARK   13  A    between atoms: C14_23  and  N4_31 
REMARK   14  A    between atoms: C16_25  and  O9_30 
REMARK   15  A    between atoms: C17_26  and  C18_28 
REMARK   16  A    between atoms: C18_28  and  N3_29 
ROOT
HETATM    1  C1  TOB     1      15.012  12.597 -12.508  1.00  0.00     0.076 C 
HETATM    2  C2  TOB     1      14.599  12.526 -13.997  1.00  0.00     0.251 C 
HETATM    3  C3  TOB     1      15.075  13.751 -14.821  1.00  0.00     0.189 C 
HETATM    4  C4  TOB     1      16.566  14.077 -14.588  1.00  0.00     0.180 C 
HETATM    5  C5  TOB     1      16.912  14.253 -13.082  1.00  0.00     0.189 C 
HETATM    6  C6  TOB     1      16.466  13.049 -12.222  1.00  0.00     0.251 C 
ENDROOT
BRANCH   5   7
HETATM    7  O1  TOB     1      16.284  15.417 -12.560  1.00  0.00    -0.348 OA
BRANCH   7   8
HETATM    8  C7  TOB     1      16.828  15.832 -11.315  1.00  0.00     0.291 C 
HETATM    9  C8  TOB     1      16.084  17.106 -10.841  1.00  0.00     0.208 C 
HETATM   10  C9  TOB     1      16.922  17.918  -9.811  1.00  0.00     0.282 C 
HETATM   11  C10 TOB     1      18.002  17.032  -9.168  1.00  0.00     0.184 C 
HETATM   12  C11 TOB     1      18.889  16.418 -10.290  1.00  0.00     0.179 C 
HETATM   13  O2  TOB     1      18.203  16.113 -11.503  1.00  0.00    -0.349 OA
BRANCH   9  14
HETATM   14  O5  TOB     1      15.725  17.927 -11.926  1.00  0.00    -0.388 OA
HETATM   15  H21 TOB     1      14.972  18.503 -11.631  1.00  0.00     0.210 HD
ENDBRANCH   9  14
BRANCH  10  16
HETATM   16  N2  TOB     1      16.066  18.513  -8.781  1.00  0.00     0.088 N 
HETATM   17  H19 TOB     1      15.119  18.683  -9.192  1.00  0.00     0.313 HD
HETATM   18  H20 TOB     1      15.950  17.838  -7.991  1.00  0.00     0.313 HD
ENDBRANCH  10  16
BRANCH  11  19
HETATM   19  O4  TOB     1      18.808  17.794  -8.304  1.00  0.00    -0.391 OA
HETATM   20  H18 TOB     1      18.881  17.289  -7.453  1.00  0.00     0.210 HD
ENDBRANCH  11  19
BRANCH  12  21
HETATM   21  C12 TOB     1      19.700  15.205  -9.810  1.00  0.00     0.198 C 
BRANCH  21  22
HETATM   22  O3  TOB     1      19.035  14.001 -10.089  1.00  0.00    -0.398 OA
HETATM   23  H17 TOB     1      19.237  13.377  -9.345  1.00  0.00     0.209 HD
ENDBRANCH  21  22
ENDBRANCH  12  21
ENDBRANCH   7   8
ENDBRANCH   5   7
BRANCH   4  24
HETATM   24  O6  TOB     1      17.378  13.095 -15.179  1.00  0.00    -0.390 OA
HETATM   25  H22 TOB     1      16.771  12.452 -15.632  1.00  0.00     0.210 HD
ENDBRANCH   4  24
BRANCH   6  26
HETATM   26  N1  TOB     1      17.434  11.947 -12.278  1.00  0.00     0.085 N 
HETATM   27  H8  TOB     1      18.333  12.294 -12.686  1.00  0.00     0.313 HD
HETATM   28  H9  TOB     1      17.638  11.567 -11.332  1.00  0.00     0.313 HD
ENDBRANCH   6  26
BRANCH   3  29
HETATM   29  O7  TOB     1      14.316  14.906 -14.482  1.00  0.00    -0.349 OA
BRANCH  29  30
HETATM   30  C13 TOB     1      13.740  15.551 -15.610  1.00  0.00     0.293 C 
HETATM   31  C14 TOB     1      14.586  16.794 -15.981  1.00  0.00     0.275 C 
HETATM   32  C15 TOB     1      13.754  17.815 -16.798  1.00  0.00     0.074 C 
HETATM   33  C16 TOB     1      12.563  17.140 -17.491  1.00  0.00     0.151 C 
HETATM   34  C17 TOB     1      11.694  16.392 -16.434  1.00  0.00     0.181 C 
HETATM   35  O8  TOB     1      12.425  15.967 -15.285  1.00  0.00    -0.349 OA
BRANCH  31  36
HETATM   36  N4  TOB     1      15.143  17.427 -14.782  1.00  0.00     0.087 N 
HETATM   37  H34 TOB     1      14.473  17.294 -13.989  1.00  0.00     0.313 HD
HETATM   38  H35 TOB     1      16.041  16.956 -14.524  1.00  0.00     0.313 HD
ENDBRANCH  31  36
BRANCH  33  39
HETATM   39  O9  TOB     1      11.786  18.109 -18.147  1.00  0.00    -0.393 OA
HETATM   40  H33 TOB     1      12.418  18.734 -18.589  1.00  0.00     0.210 HD
ENDBRANCH  33  39
BRANCH  34  41
HETATM   41  C18 TOB     1      10.923  15.192 -17.031  1.00  0.00     0.301 C 
BRANCH  41  42
HETATM   42  N3  TOB     1      11.459  14.770 -18.325  1.00  0.00     0.080 N 
HETATM   43  H31 TOB     1      12.300  15.346 -18.558  1.00  0.00     0.312 HD
HETATM   44  H32 TOB     1      11.753  13.769 -18.265  1.00  0.00     0.312 HD
ENDBRANCH  41  42
ENDBRANCH  34  41
ENDBRANCH  29  30
ENDBRANCH   3  29
BRANCH   2  45
HETATM   45  N5  TOB     1      14.975  11.261 -14.638  1.00  0.00     0.085 N 
HETATM   46  H36 TOB     1      15.972  11.027 -14.462  1.00  0.00     0.313 HD
HETATM   47  H37 TOB     1      14.396  10.489 -14.235  1.00  0.00     0.313 HD
ENDBRANCH   2  45
TORSDOF 16
ENDMDL
