@<TRIPOS>MOLECULE
tdl.pdb
 48 53 0 0 0
SMALL
GASTEIGER

@<TRIPOS>ATOM
      1 C1         56.5200   86.7840  145.6850 C.3     1  TDL1        0.0037
      2 N1         57.6170   87.2730  146.5000 N.am    1  TDL1       -0.2942
      3 C2         58.9430   87.1750  145.9120 C.3     1  TDL1        0.0910
      4 C3         60.0790   87.8220  146.7020 C.2     1  TDL1        0.2344
      5 O1         61.0670   88.2820  146.1310 O.2     1  TDL1       -0.2738
      6 N2         59.9900   87.6360  148.0870 N.am    1  TDL1       -0.2758
      7 C4         58.6380   87.8170  148.6800 C.3     1  TDL1        0.1074
      8 C5         57.5010   87.1410  147.8840 C.2     1  TDL1        0.2366
      9 O2         56.4790   86.7150  148.4200 O.2     1  TDL1       -0.2735
     10 C6         58.5290   87.3560  150.1520 C.3     1  TDL1        0.0019
     11 C7         59.6590   87.9140  150.9280 C.ar    1  TDL1       -0.0147
     12 C8         60.8470   88.2240  150.3040 C.ar    1  TDL1        0.0456
     13 C9         61.1830   88.0670  148.8530 C.3     1  TDL1        0.0925
     14 N3         61.7050   88.7070  151.2560 N.ar    1  TDL1       -0.3560
     15 C17        61.0830   88.7190  152.4870 C.ar    1  TDL1        0.0470
     16 C18        61.5670   89.1250  153.7360 C.ar    1  TDL1       -0.0378
     17 C19        60.7030   89.0190  154.8310 C.ar    1  TDL1       -0.0598
     18 C20        59.4080   88.5270  154.6800 C.ar    1  TDL1       -0.0611
     19 C21        58.9390   88.1240  153.4240 C.ar    1  TDL1       -0.0523
     20 C22        59.7910   88.2210  152.3060 C.ar    1  TDL1        0.0032
     21 H15        62.6620   88.9920  151.0960 H       1  TDL1        0.1657
     22 C10        62.3300   87.0730  148.6700 C.ar    1  TDL1       -0.0175
     23 C11        63.6640   87.5160  148.5880 C.ar    1  TDL1       -0.0108
     24 C12        64.6570   86.5740  148.4160 C.ar    1  TDL1        0.1666
     25 C13        64.3740   85.2320  148.3260 C.ar    1  TDL1        0.1662
     26 O4         65.9880   86.8330  148.3170 O.3     1  TDL1       -0.4526
     27 C14        63.0850   84.7550  148.4070 C.ar    1  TDL1       -0.0158
     28 O3         65.4930   84.4770  148.1580 O.3     1  TDL1       -0.4526
     29 C15        62.0560   85.6860  148.5810 C.ar    1  TDL1       -0.0527
     30 C16        66.5110   85.4980  148.1540 C.3     1  TDL1        0.2332
     31  H         56.7430   86.9490  144.6510 H       1  TDL1        0.0429
     32  H         55.6230   87.3060  145.9440 H       1  TDL1        0.0429
     33  H         56.3860   85.7370  145.8590 H       1  TDL1        0.0429
     34  H         58.9090   87.6400  144.9490 H       1  TDL1        0.0560
     35  H         59.1700   86.1300  145.8880 H       1  TDL1        0.0560
     36  H         58.5120   88.8790  148.6330 H       1  TDL1        0.0600
     37  H         58.5600   86.2870  150.1940 H       1  TDL1        0.0337
     38  H         57.6060   87.7020  150.5670 H       1  TDL1        0.0337
     39  H         61.5000   89.0170  148.4760 H       1  TDL1        0.0616
     40  H         62.5260   89.4890  153.8450 H       1  TDL1        0.0638
     41  H         61.0300   89.3100  155.7660 H       1  TDL1        0.0618
     42  H         58.7880   88.4590  155.5020 H       1  TDL1        0.0618
     43  H         57.9790   87.7600  153.3180 H       1  TDL1        0.0624
     44  H         63.8930   88.5200  148.6550 H       1  TDL1        0.0659
     45  H         62.8850   83.7450  148.3420 H       1  TDL1        0.0655
     46  H         61.0800   85.3570  148.6460 H       1  TDL1        0.0622
     47  H         67.0340   85.4510  147.2220 H       1  TDL1        0.1166
     48  H         67.1520   85.3070  148.9890 H       1  TDL1        0.1166
@<TRIPOS>BOND
     1     1     2    1
     2     1    31    1
     3     1    32    1
     4     1    33    1
     5     2     3    1
     6     2     8   am
     7     3     4    1
     8     3    34    1
     9     3    35    1
    10     4     5    2
    11     4     6   am
    12     6     7    1
    13     6    13    1
    14     7     8    1
    15     7    10    1
    16     7    36    1
    17     8     9    2
    18    10    11    1
    19    10    37    1
    20    10    38    1
    21    11    12   ar
    22    11    20   ar
    23    12    13    1
    24    12    14   ar
    25    13    22    1
    26    13    39    1
    27    14    21    1
    28    14    15   ar
    29    15    20   ar
    30    15    16   ar
    31    16    17   ar
    32    16    40    1
    33    17    18   ar
    34    17    41    1
    35    18    19   ar
    36    18    42    1
    37    19    20   ar
    38    19    43    1
    39    22    29   ar
    40    22    23   ar
    41    23    24   ar
    42    23    44    1
    43    24    26    1
    44    24    25   ar
    45    25    28    1
    46    25    27   ar
    47    26    30    1
    48    27    29   ar
    49    27    45    1
    50    28    30    1
    51    29    46    1
    52    30    47    1
    53    30    48    1
