@<TRIPOS>MOLECULE
*****
 21 22 0 0 0
SMALL
GASTEIGER

@<TRIPOS>ATOM
      1  C1       -25.1684    0.5957   47.9321 C.3     1  NDX1        0.0188
      2  N1       -24.0723    2.1583   46.2917 N.3     1  NDX1       -0.2611
      3  O1       -25.4490    5.5520   44.1242 O.3     1  NDX1       -0.3841
      4  C2       -23.9046    0.9454   47.1247 C.3     1  NDX1        0.0733
      5  N2       -23.2872    3.5899   48.1053 N.3     1  NDX1       -0.2869
      6  O2       -25.6721    3.5381   41.9115 O.3     1  NDX1       -0.3602
      7  C3       -25.0838    1.9334   45.2373 C.3     1  NDX1        0.0807
      8  O3       -26.2078    1.4907   42.7069 O.3     1  NDX1       -0.3602
      9  C4       -25.1335    3.1104   44.2415 C.3     1  NDX1        0.0989
     10  C5       -25.4717    4.4160   45.0009 C.3     1  NDX1        0.1192
     11  C6       -24.5083    4.6468   46.1858 C.3     1  NDX1        0.0570
     12  C7       -24.3399    3.3889   47.0772 C.3     1  NDX1        0.1174
     13  C8       -23.1373    4.9836   48.5855 C.3     1  NDX1        0.0550
     14  C9       -24.4467    5.7909   48.4950 C.3     1  NDX1        0.0159
     15  C10      -24.9634    5.8534   47.0406 C.3     1  NDX1        0.0065
     16  C11      -22.5557    5.0106   50.0055 C.3     1  NDX1        0.0171
     17  C12      -26.1231    2.8592   43.0758 C.3     1  NDX1        0.2320
     18  H4       -24.6060    6.0260   44.2420 H       1  NDX1        0.2103
     19  H7       -22.3895    3.2522   47.7635 H       1  NDX1        0.1244
     20  H12      -25.3120    4.3890   42.2090 H       1  NDX1        0.2129
     21  H12      -26.4610    1.5030   41.7670 H       1  NDX1        0.2129
@<TRIPOS>BOND
     1    21     8    1
     2     6    20    1
     3     6    17    1
     4     8    17    1
     5    17     9    1
     6     3    18    1
     7     3    10    1
     8     9    10    1
     9     9     7    1
    10    10    11    1
    11     7     2    1
    12    11    12    1
    13    11    15    1
    14     2     4    1
    15     2    12    1
    16     4     1    1
    17    12     5    1
    18    15    14    1
    19    19     5    1
    20     5    13    1
    21    14    13    1
    22    13    16    1
