MODEL 1
REMARK VINA RESULT:    -8.583      0.000      0.000
REMARK INTER + INTRA:         -10.147
REMARK INTER:                  -9.837
REMARK INTRA:                  -0.310
REMARK UNBOUND:                -0.310
REMARK  4 active torsions:
REMARK  status: ('A' for Active; 'I' for Inactive)
REMARK    1  A    between atoms: C3_3  and  O5_20 
REMARK    2  A    between atoms: C6_6  and  C7_7 
REMARK    3  A    between atoms: C11_12  and  O4_19 
REMARK    4  A    between atoms: C13_14  and  O3_18 
ROOT
HETATM    1  C7  API     1     100.109 100.193 107.465  1.00  0.00     0.090 A 
HETATM    2  C8  API     1     100.837  99.234 106.875  1.00  0.00     0.094 A 
HETATM    3  C9  API     1     101.915  99.622 105.954  1.00  0.00     0.190 A 
HETATM    4  O1  API     1     102.607  98.787 105.384  1.00  0.00    -0.287 OA
HETATM    5  C10 API     1     102.130 101.058 105.743  1.00  0.00     0.081 A 
HETATM    6  C11 API     1     103.128 101.534 104.888  1.00  0.00     0.085 A 
HETATM    7  C12 API     1     103.306 102.905 104.711  1.00  0.00     0.074 A 
HETATM    8  C13 API     1     102.479 103.790 105.397  1.00  0.00     0.071 A 
HETATM    9  C14 API     1     101.482 103.328 106.252  1.00  0.00     0.075 A 
HETATM   10  C15 API     1     101.308 101.954 106.425  1.00  0.00     0.095 A 
HETATM   11  O2  API     1     100.314 101.552 107.280  1.00  0.00    -0.309 OA
ENDROOT
BRANCH   1  12
HETATM   12  C6  API     1      99.020  99.870 108.408  1.00  0.00    -0.002 A 
HETATM   13  C1  API     1      98.489  98.570 108.446  1.00  0.00     0.017 A 
HETATM   14  C2  API     1      97.463  98.239 109.337  1.00  0.00     0.037 A 
HETATM   15  C3  API     1      96.969  99.209 110.200  1.00  0.00     0.065 A 
HETATM   16  C4  API     1      97.485 100.499 110.189  1.00  0.00     0.037 A 
HETATM   17  C5  API     1      98.509 100.828 109.299  1.00  0.00     0.017 A 
BRANCH  15  18
HETATM   18  O5  API     1      95.971  98.933 111.086  1.00  0.00    -0.361 OA
HETATM   19  H10 API     1      95.962  97.976 111.257  1.00  0.00     0.217 HD
ENDBRANCH  15  18
ENDBRANCH   1  12
BRANCH   6  20
HETATM   20  O4  API     1     103.968 100.708 104.190  1.00  0.00    -0.360 OA
HETATM   21  H9  API     1     104.841 101.156 104.109  1.00  0.00     0.217 HD
ENDBRANCH   6  20
BRANCH   8  22
HETATM   22  O3  API     1     102.615 105.139 105.257  1.00  0.00    -0.361 OA
HETATM   23  H8  API     1     102.536 105.556 106.132  1.00  0.00     0.217 HD
ENDBRANCH   8  22
TORSDOF 4
ENDMDL
