MODEL 1
REMARK VINA RESULT:    -9.517      0.000      0.000
REMARK INTER + INTRA:         -14.943
REMARK INTER:                 -13.412
REMARK INTRA:                  -1.531
REMARK UNBOUND:                -1.531
REMARK  10 active torsions:
REMARK  status: ('A' for Active; 'I' for Inactive)
REMARK    1  A    between atoms: C4_4  and  C7_7 
REMARK    2  A    between atoms: C11_12  and  O11_32 
REMARK    3  A    between atoms: C12_13  and  O10_31 
REMARK    4  A    between atoms: C13_14  and  O3_18 
REMARK    5  A    between atoms: O3_18  and  C16_19 
REMARK    6  A    between atoms: C17_20  and  O9_30 
REMARK    7  A    between atoms: C18_21  and  O8_29 
REMARK    8  A    between atoms: C19_22  and  O7_28 
REMARK    9  A    between atoms: C20_23  and  C21_25 
REMARK   10  A    between atoms: C21_25  and  O6_27 
ROOT
HETATM    1  C7  BAI     1     101.116 103.678 105.844  1.00  0.00     0.090 A 
HETATM    2  C8  BAI     1     102.017 102.801 105.377  1.00  0.00     0.094 A 
HETATM    3  C9  BAI     1     101.850 101.376 105.692  1.00  0.00     0.190 A 
HETATM    4  O1  BAI     1     102.637 100.525 105.293  1.00  0.00    -0.287 OA
HETATM    5  C10 BAI     1     100.694 101.003 106.511  1.00  0.00     0.084 A 
HETATM    6  C11 BAI     1     100.448  99.677 106.869  1.00  0.00     0.118 A 
HETATM    7  C12 BAI     1      99.337  99.360 107.653  1.00  0.00     0.134 A 
HETATM    8  C13 BAI     1      98.460 100.363 108.072  1.00  0.00     0.110 A 
HETATM    9  C14 BAI     1      98.726 101.693 107.729  1.00  0.00     0.078 A 
HETATM   10  C15 BAI     1      99.836 102.010 106.942  1.00  0.00     0.096 A 
HETATM   11  O2  BAI     1     100.027 103.332 106.632  1.00  0.00    -0.309 OA
ENDROOT
BRANCH   8  12
HETATM   12  O3  BAI     1      97.376 100.165 108.880  1.00  0.00    -0.315 OA
BRANCH  12  13
HETATM   13  C16 BAI     1      97.037 101.280 109.714  1.00  0.00     0.299 C 
HETATM   14  C17 BAI     1      95.543 101.613 109.496  1.00  0.00     0.205 C 
HETATM   15  C18 BAI     1      94.755 101.427 110.786  1.00  0.00     0.183 C 
HETATM   16  C19 BAI     1      95.064 100.059 111.385  1.00  0.00     0.189 C 
HETATM   17  C20 BAI     1      96.570  99.927 111.673  1.00  0.00     0.253 C 
HETATM   18  O4  BAI     1      97.335 100.990 111.090  1.00  0.00    -0.340 OA
BRANCH  14  19
HETATM   19  O9  BAI     1      95.345 102.969 109.053  1.00  0.00    -0.388 OA
HETATM   20  H16 BAI     1      96.116 103.465 109.402  1.00  0.00     0.210 HD
ENDBRANCH  14  19
BRANCH  15  21
HETATM   21  O8  BAI     1      93.344 101.516 110.518  1.00  0.00    -0.390 OA
HETATM   22  H15 BAI     1      93.267 101.405 109.549  1.00  0.00     0.210 HD
ENDBRANCH  15  21
BRANCH  16  23
HETATM   23  O7  BAI     1      94.300  99.920 112.596  1.00  0.00    -0.390 OA
HETATM   24  H14 BAI     1      93.539  99.354 112.350  1.00  0.00     0.210 HD
ENDBRANCH  16  23
BRANCH  17  25
HETATM   25  C21 BAI     1      97.129  98.535 111.341  1.00  0.00     0.172 C 
HETATM   26  O5  BAI     1      96.493  97.495 111.240  1.00  0.00    -0.648 OA
BRANCH  25  27
HETATM   27  O6  BAI     1      98.449  98.521 111.072  1.00  0.00    -0.774 OA
HETATM   28  H13 BAI     1      98.698  97.576 111.141  1.00  0.00     0.167 HD
ENDBRANCH  25  27
ENDBRANCH  17  25
ENDBRANCH  12  13
ENDBRANCH   8  12
BRANCH   7  29
HETATM   29  O10 BAI     1      99.155  98.046 108.006  1.00  0.00    -0.356 OA
HETATM   30  H17 BAI     1     100.070  97.715 108.150  1.00  0.00     0.218 HD
ENDBRANCH   7  29
BRANCH   6  31
HETATM   31  O11 BAI     1     101.259  98.630 106.500  1.00  0.00    -0.357 OA
HETATM   32  H18 BAI     1     100.705  97.813 106.493  1.00  0.00     0.217 HD
ENDBRANCH   6  31
BRANCH   1  33
HETATM   33  C4  BAI     1     101.230 105.125 105.574  1.00  0.00    -0.002 A 
HETATM   34  C3  BAI     1     102.284 105.649 104.809  1.00  0.00     0.014 A 
HETATM   35  C2  BAI     1     102.370 107.022 104.558  1.00  0.00     0.001 A 
HETATM   36  C1  BAI     1     101.402 107.886 105.061  1.00  0.00     0.000 A 
HETATM   37  C6  BAI     1     100.344 107.380 105.813  1.00  0.00     0.001 A 
HETATM   38  C5  BAI     1     100.258 106.009 106.064  1.00  0.00     0.014 A 
ENDBRANCH   1  33
TORSDOF 10
ENDMDL
