MODEL 1
REMARK VINA RESULT:    -9.646      0.000      0.000
REMARK INTER + INTRA:         -10.753
REMARK INTER:                 -10.774
REMARK INTRA:                   0.021
REMARK UNBOUND:                 0.021
REMARK  2 active torsions:
REMARK  status: ('A' for Active; 'I' for Inactive)
REMARK    1  A    between atoms: O1_2  and  C2_3 
REMARK    2  A    between atoms: C3_4  and  O4_24 
ROOT
HETATM    1  C2  BER     1     101.920 101.283 106.022  1.00  0.00     0.102 A 
HETATM    2  C3  BER     1     100.969 101.960 106.809  1.00  0.00     0.114 A 
HETATM    3  C4  BER     1     100.028 101.232 107.583  1.00  0.00     0.026 A 
HETATM    4  C5  BER     1      99.029 101.856 108.338  1.00  0.00     0.106 A 
HETATM    5  N1  BER     1      98.133 101.158 109.073  1.00  0.00    -0.355 N 
HETATM    6  C6  BER     1      98.180  99.797 109.130  1.00  0.00     0.046 A 
HETATM    7  C7  BER     1      99.157  99.123 108.384  1.00  0.00     0.043 A 
HETATM    8  C8  BER     1     100.081  99.831 107.608  1.00  0.00    -0.019 A 
HETATM    9  C9  BER     1     101.056  99.168 106.854  1.00  0.00     0.015 A 
HETATM   10  C10 BER     1     101.960  99.887 106.067  1.00  0.00     0.040 A 
HETATM   11  C11 BER     1      97.155  99.127 109.958  1.00  0.00    -0.000 A 
HETATM   12  C12 BER     1      97.315  97.811 110.434  1.00  0.00     0.054 A 
HETATM   13  C13 BER     1      96.296  97.236 111.168  1.00  0.00     0.105 A 
HETATM   14  C14 BER     1      95.135  97.905 111.450  1.00  0.00     0.105 A 
HETATM   15  C15 BER     1      94.926  99.195 111.021  1.00  0.00     0.047 A 
HETATM   16  C16 BER     1      95.951  99.813 110.286  1.00  0.00    -0.041 A 
HETATM   17  C17 BER     1      95.781 101.227 109.802  1.00  0.00     0.060 C 
HETATM   18  C18 BER     1      97.129 101.922 109.860  1.00  0.00     0.133 C 
HETATM   19  O2  BER     1      94.266  97.158 112.178  1.00  0.00    -0.323 OA
HETATM   20  C19 BER     1      95.013  95.930 112.322  1.00  0.00     0.352 A 
HETATM   21  O3  BER     1      96.309  95.979 111.685  1.00  0.00    -0.323 OA
ENDROOT
BRANCH   1  22
HETATM   22  O1  BER     1     102.741 102.035 105.228  1.00  0.00    -0.353 OA
HETATM   23  C1  BER     1     104.060 101.563 104.976  1.00  0.00     0.210 C 
ENDBRANCH   1  22
BRANCH   2  24
HETATM   24  O4  BER     1     100.810 103.328 106.869  1.00  0.00    -0.352 OA
HETATM   25  C20 BER     1     100.150 103.950 105.766  1.00  0.00     0.210 C 
ENDBRANCH   2  24
TORSDOF 2
ENDMDL
