MODEL 1
REMARK VINA RESULT:    -8.316      0.000      0.000
REMARK INTER + INTRA:         -10.231
REMARK INTER:                 -10.017
REMARK INTRA:                  -0.214
REMARK UNBOUND:                -0.214
REMARK  6 active torsions:
REMARK  status: ('A' for Active; 'I' for Inactive)
REMARK    1  A    between atoms: C2_2  and  O6_21 
REMARK    2  A    between atoms: C3_3  and  C10_13 
REMARK    3  A    between atoms: C6_7  and  O3_12 
REMARK    4  A    between atoms: C8_9  and  O2_11 
REMARK    5  A    between atoms: C12_15  and  O5_20 
REMARK    6  A    between atoms: C13_16  and  O4_19 
ROOT
HETATM    1  C1  CAT     1      99.328  98.915 108.016  1.00  0.00     0.079 C 
HETATM    2  C2  CAT     1     100.255  99.504 106.955  1.00  0.00     0.156 C 
HETATM    3  C3  CAT     1     101.063 100.648 107.596  1.00  0.00     0.191 C 
HETATM    4  O1  CAT     1     100.209 101.699 108.067  1.00  0.00    -0.338 OA
HETATM    5  C4  CAT     1      99.138 101.291 108.816  1.00  0.00     0.081 A 
HETATM    6  C5  CAT     1      98.506 102.297 109.548  1.00  0.00     0.074 A 
HETATM    7  C6  CAT     1      97.410 101.988 110.341  1.00  0.00     0.071 A 
HETATM    8  C7  CAT     1      96.935 100.686 110.413  1.00  0.00     0.073 A 
HETATM    9  C8  CAT     1      97.564  99.687 109.671  1.00  0.00     0.077 A 
HETATM   10  C9  CAT     1      98.659  99.973 108.843  1.00  0.00     0.011 A 
ENDROOT
BRANCH   3  11
HETATM   11  C10 CAT     1     102.039 101.263 106.602  1.00  0.00    -0.024 A 
HETATM   12  C11 CAT     1     103.323 100.722 106.421  1.00  0.00     0.049 A 
HETATM   13  C12 CAT     1     104.204 101.320 105.531  1.00  0.00     0.099 A 
HETATM   14  C13 CAT     1     103.832 102.450 104.808  1.00  0.00     0.098 A 
HETATM   15  C14 CAT     1     102.568 103.000 104.969  1.00  0.00     0.040 A 
HETATM   16  C15 CAT     1     101.674 102.408 105.868  1.00  0.00     0.013 A 
BRANCH  13  17
HETATM   17  O5  CAT     1     105.451 100.788 105.372  1.00  0.00    -0.358 OA
HETATM   18  H13 CAT     1     105.487 100.052 106.015  1.00  0.00     0.217 HD
ENDBRANCH  13  17
BRANCH  14  19
HETATM   19  O4  CAT     1     104.750 102.985 103.948  1.00  0.00    -0.358 OA
HETATM   20  H12 CAT     1     104.356 103.772 103.534  1.00  0.00     0.217 HD
ENDBRANCH  14  19
ENDBRANCH   3  11
BRANCH   2  21
HETATM   21  O6  CAT     1     101.091  98.449 106.467  1.00  0.00    -0.392 OA
HETATM   22  H14 CAT     1     100.550  97.637 106.462  1.00  0.00     0.210 HD
ENDBRANCH   2  21
BRANCH   9  23
HETATM   23  O2  CAT     1      97.043  98.430 109.809  1.00  0.00    -0.360 OA
HETATM   24  H7  CAT     1      97.725  97.767 109.619  1.00  0.00     0.217 HD
ENDBRANCH   9  23
BRANCH   7  25
HETATM   25  O3  CAT     1      96.825 102.998 111.045  1.00  0.00    -0.361 OA
HETATM   26  H8  CAT     1      97.422 103.258 111.767  1.00  0.00     0.217 HD
ENDBRANCH   7  25
TORSDOF 6
ENDMDL
