MODEL 1
REMARK VINA RESULT:    -9.300      0.000      0.000
REMARK INTER + INTRA:         -14.937
REMARK INTER:                 -14.193
REMARK INTRA:                  -0.743
REMARK UNBOUND:                -0.743
REMARK  10 active torsions:
REMARK  status: ('A' for Active; 'I' for Inactive)
REMARK    1  A    between atoms: O1_2  and  C2_3 
REMARK    2  A    between atoms: C3_4  and  O6_27 
REMARK    3  A    between atoms: C6_7  and  C8_9 
REMARK    4  A    between atoms: C9_10  and  C10_11 
REMARK    5  A    between atoms: C10_11  and  C11_13 
REMARK    6  A    between atoms: C11_13  and  C12_14 
REMARK    7  A    between atoms: C12_14  and  C13_16 
REMARK    8  A    between atoms: C14_17  and  C15_18 
REMARK    9  A    between atoms: C17_20  and  O5_25 
REMARK   10  A    between atoms: C18_21  and  O4_24 
ROOT
HETATM    1  C11 CUR     1     103.022 100.801 106.438  1.00  0.00     0.165 C 
ENDROOT
BRANCH   1   2
HETATM    2  C10 CUR     1     102.233  99.559 106.105  1.00  0.00     0.156 C 
HETATM    3  O2  CUR     1     102.580  98.759 105.237  1.00  0.00    -0.293 OA
BRANCH   2   4
HETATM    4  C9  CUR     1     100.958  99.284 106.827  1.00  0.00     0.051 C 
HETATM    5  C8  CUR     1     100.492 100.003 107.858  1.00  0.00     0.015 C 
BRANCH   5   6
HETATM    6  C6  CUR     1      99.220  99.702 108.534  1.00  0.00    -0.033 A 
HETATM    7  C5  CUR     1      98.528  98.504 108.311  1.00  0.00     0.014 A 
HETATM    8  C4  CUR     1      97.340  98.236 108.991  1.00  0.00     0.040 A 
HETATM    9  C3  CUR     1      96.844  99.164 109.905  1.00  0.00     0.099 A 
HETATM   10  C2  CUR     1      97.525 100.363 110.159  1.00  0.00     0.102 A 
HETATM   11  C7  CUR     1      98.717 100.619 109.472  1.00  0.00     0.051 A 
BRANCH   9  12
HETATM   12  O6  CUR     1      95.678  98.903 110.574  1.00  0.00    -0.358 OA
HETATM   13  H20 CUR     1      94.946  98.872 109.940  1.00  0.00     0.217 HD
ENDBRANCH   9  12
BRANCH  10  14
HETATM   14  O1  CUR     1      96.952 101.199 111.081  1.00  0.00    -0.353 OA
HETATM   15  C1  CUR     1      96.399 102.419 110.611  1.00  0.00     0.210 C 
ENDBRANCH  10  14
ENDBRANCH   5   6
ENDBRANCH   2   4
ENDBRANCH   1   2
BRANCH   1  16
HETATM   16  C12 CUR     1     103.433 101.641 105.254  1.00  0.00     0.156 C 
HETATM   17  O3  CUR     1     104.380 101.307 104.542  1.00  0.00    -0.293 OA
BRANCH  16  18
HETATM   18  C13 CUR     1     102.713 102.927 105.026  1.00  0.00     0.051 C 
HETATM   19  C14 CUR     1     102.121 103.175 103.849  1.00  0.00     0.015 C 
BRANCH  19  20
HETATM   20  C15 CUR     1     101.388 104.415 103.567  1.00  0.00    -0.033 A 
HETATM   21  C16 CUR     1     102.017 105.671 103.618  1.00  0.00     0.051 A 
HETATM   22  C17 CUR     1     101.290 106.837 103.366  1.00  0.00     0.102 A 
HETATM   23  C18 CUR     1      99.926 106.730 103.073  1.00  0.00     0.099 A 
HETATM   24  C19 CUR     1      99.283 105.500 103.036  1.00  0.00     0.040 A 
HETATM   25  C20 CUR     1     100.016 104.340 103.291  1.00  0.00     0.014 A 
BRANCH  22  26
HETATM   26  O5  CUR     1     101.782 108.117 103.377  1.00  0.00    -0.353 OA
HETATM   27  C21 CUR     1     103.182 108.260 103.588  1.00  0.00     0.210 C 
ENDBRANCH  22  26
BRANCH  23  28
HETATM   28  O4  CUR     1      99.187 107.853 102.820  1.00  0.00    -0.358 OA
HETATM   29  H16 CUR     1      99.301 108.412 103.613  1.00  0.00     0.217 HD
ENDBRANCH  23  28
ENDBRANCH  19  20
ENDBRANCH  16  18
ENDBRANCH   1  16
TORSDOF 10
ENDMDL
