MODEL 1
REMARK VINA RESULT:    -5.820      0.000      0.000
REMARK INTER + INTRA:          -6.898
REMARK INTER:                  -6.840
REMARK INTRA:                  -0.058
REMARK UNBOUND:                -0.058
REMARK  5 active torsions:
REMARK  status: ('A' for Active; 'I' for Inactive)
REMARK    1  A    between atoms: C2_2  and  C7_10 
REMARK    2  A    between atoms: C4_4  and  O3_9 
REMARK    3  A    between atoms: C5_5  and  O2_8 
REMARK    4  A    between atoms: C6_6  and  O1_7 
REMARK    5  A    between atoms: C7_10  and  O5_12 
ROOT
HETATM    1  C1  GAL     1     100.912 100.974 107.233  1.00  0.00     0.057 A 
HETATM    2  C2  GAL     1     101.147  99.655 106.804  1.00  0.00     0.043 A 
HETATM    3  C3  GAL     1     100.278  98.621 107.187  1.00  0.00     0.057 A 
HETATM    4  C4  GAL     1      99.186  98.914 107.993  1.00  0.00     0.102 A 
HETATM    5  C5  GAL     1      98.952 100.215 108.417  1.00  0.00     0.132 A 
HETATM    6  C6  GAL     1      99.810 101.242 108.039  1.00  0.00     0.102 A 
ENDROOT
BRANCH   2   7
HETATM    7  C7  GAL     1     102.303  99.310 105.944  1.00  0.00     0.176 C 
HETATM    8  O4  GAL     1     103.316  99.967 105.803  1.00  0.00    -0.646 OA
BRANCH   7   9
HETATM    9  O5  GAL     1     102.134  98.145 105.291  1.00  0.00    -0.773 OA
HETATM   10  H6  GAL     1     103.028  97.744 105.306  1.00  0.00     0.167 HD
ENDBRANCH   7   9
ENDBRANCH   2   7
BRANCH   6  11
HETATM   11  O1  GAL     1      99.529 102.502 108.487  1.00  0.00    -0.358 OA
HETATM   12  H3  GAL     1      99.144 103.013 107.752  1.00  0.00     0.217 HD
ENDBRANCH   6  11
BRANCH   4  13
HETATM   13  O3  GAL     1      98.340  97.911 108.367  1.00  0.00    -0.358 OA
HETATM   14  H5  GAL     1      98.243  98.014 109.336  1.00  0.00     0.217 HD
ENDBRANCH   4  13
BRANCH   5  15
HETATM   15  O2  GAL     1      97.867 100.472 109.209  1.00  0.00    -0.356 OA
HETATM   16  H4  GAL     1      98.009 101.388 109.527  1.00  0.00     0.218 HD
ENDBRANCH   5  15
TORSDOF 5
ENDMDL
