MODEL 1
REMARK VINA RESULT:   -10.722      0.000      0.000
REMARK INTER + INTRA:         -13.668
REMARK INTER:                 -13.856
REMARK INTRA:                   0.188
REMARK UNBOUND:                 0.188
REMARK  6 active torsions:
REMARK  status: ('A' for Active; 'I' for Inactive)
REMARK    1  A    between atoms: C3_3  and  C4_4 
REMARK    2  A    between atoms: C4_4  and  C5_5 
REMARK    3  A    between atoms: C5_5  and  C6_6 
REMARK    4  A    between atoms: C6_6  and  C8_8 
REMARK    5  A    between atoms: C6_6  and  O2_31 
REMARK    6  A    between atoms: C23_23  and  O1_27 
ROOT
HETATM    1  C8  GIN     1      96.488  98.929 110.673  1.00  0.00     0.024 C 
HETATM    2  C9  GIN     1      96.352  99.046 112.193  1.00  0.00     0.009 C 
HETATM    3  C10 GIN     1      94.871  98.768 112.426  1.00  0.00     0.011 C 
HETATM    4  C11 GIN     1      94.118  99.406 111.221  1.00  0.00    -0.032 C 
HETATM    5  C12 GIN     1      95.253  99.739 110.172  1.00  0.00     0.001 C 
HETATM    6  C13 GIN     1      95.452 101.237 109.969  1.00  0.00     0.006 C 
HETATM    7  C14 GIN     1      94.160 101.951 109.566  1.00  0.00     0.006 C 
HETATM    8  C15 GIN     1      92.880 101.473 110.302  1.00  0.00     0.003 C 
HETATM    9  C16 GIN     1      93.215 100.691 111.624  1.00  0.00    -0.032 C 
HETATM   10  C17 GIN     1      91.891 100.223 112.299  1.00  0.00     0.011 C 
HETATM   11  C18 GIN     1      90.807 101.296 112.421  1.00  0.00     0.007 C 
HETATM   12  C19 GIN     1      90.469 101.908 111.047  1.00  0.00     0.004 C 
HETATM   13  C20 GIN     1      91.728 102.573 110.387  1.00  0.00    -0.035 C 
HETATM   14  C21 GIN     1      91.370 103.027 108.930  1.00  0.00     0.012 C 
HETATM   15  C22 GIN     1      89.873 103.085 108.608  1.00  0.00     0.033 C 
HETATM   16  C23 GIN     1      89.036 103.647 109.752  1.00  0.00     0.126 C 
HETATM   17  C24 GIN     1      89.146 102.774 111.042  1.00  0.00    -0.017 C 
HETATM   18  C25 GIN     1      88.968 103.635 112.312  1.00  0.00     0.018 C 
HETATM   19  C26 GIN     1      87.943 101.785 111.019  1.00  0.00     0.018 C 
HETATM   20  C27 GIN     1      92.185 103.826 111.173  1.00  0.00     0.016 C 
HETATM   21  C28 GIN     1      93.940 101.634 112.640  1.00  0.00     0.016 C 
HETATM   22  C29 GIN     1      93.273  98.256 110.589  1.00  0.00     0.016 C 
ENDROOT
BRANCH   1  23
HETATM   23  C6  GIN     1      97.899  99.255 110.116  1.00  0.00     0.058 C 
HETATM   24  C7  GIN     1      98.116 100.773 110.029  1.00  0.00     0.046 C 
BRANCH  23  25
HETATM   25  C5  GIN     1      98.188  98.562 108.755  1.00  0.00     0.041 C 
BRANCH  25  26
HETATM   26  C4  GIN     1      98.714  99.410 107.590  1.00  0.00     0.030 C 
BRANCH  26  27
HETATM   27  C3  GIN     1     100.181  99.270 107.305  1.00  0.00    -0.025 C 
HETATM   28  C2  GIN     1     100.916 100.004 106.447  1.00  0.00    -0.091 C 
HETATM   29  C1  GIN     1     102.394  99.755 106.292  1.00  0.00     0.042 C 
HETATM   30  C30 GIN     1     100.377 101.103 105.574  1.00  0.00     0.042 C 
ENDBRANCH  26  27
ENDBRANCH  25  26
ENDBRANCH  23  25
BRANCH  23  31
HETATM   31  O2  GIN     1      98.891  98.737 111.018  1.00  0.00    -0.390 OA
HETATM   32  H49 GIN     1      99.264  99.485 111.515  1.00  0.00     0.210 HD
ENDBRANCH  23  31
ENDBRANCH   1  23
BRANCH  16  33
HETATM   33  O1  GIN     1      89.418 105.000 109.987  1.00  0.00    -0.395 OA
HETATM   34  H39 GIN     1      89.591 105.414 109.124  1.00  0.00     0.210 HD
ENDBRANCH  16  33
TORSDOF 6
ENDMDL
