MODEL 1
REMARK VINA RESULT:   -10.837      0.000      0.000
REMARK INTER + INTRA:         -20.021
REMARK INTER:                 -17.806
REMARK INTRA:                  -2.215
REMARK UNBOUND:                -2.215
REMARK  15 active torsions:
REMARK  status: ('A' for Active; 'I' for Inactive)
REMARK    1  A    between atoms: C5_5  and  C42_56 
REMARK    2  A    between atoms: C15_16  and  O2_29 
REMARK    3  A    between atoms: O2_29  and  C28_30 
REMARK    4  A    between atoms: C29_31  and  O8_41 
REMARK    5  A    between atoms: C30_32  and  O7_40 
REMARK    6  A    between atoms: C31_33  and  O6_39 
REMARK    7  A    between atoms: C32_34  and  C33_36 
REMARK    8  A    between atoms: C33_36  and  O5_38 
REMARK    9  A    between atoms: O8_41  and  C34_42 
REMARK   10  A    between atoms: C35_43  and  O14_53 
REMARK   11  A    between atoms: C36_44  and  O13_52 
REMARK   12  A    between atoms: C37_45  and  O12_51 
REMARK   13  A    between atoms: C38_46  and  C39_48 
REMARK   14  A    between atoms: C39_48  and  O11_50 
REMARK   15  A    between atoms: C42_56  and  O16_58 
ROOT
HETATM    1  C1  GRA     1      86.480 104.077 112.131  1.00  0.00     0.016 C 
HETATM    2  C2  GRA     1      87.656 103.447 111.329  1.00  0.00    -0.036 C 
HETATM    3  C3  GRA     1      87.310 101.961 111.051  1.00  0.00     0.011 C 
HETATM    4  C4  GRA     1      87.277 101.077 112.296  1.00  0.00     0.021 C 
HETATM    5  C5  GRA     1      88.568 101.149 113.131  1.00  0.00     0.042 C 
HETATM    6  C6  GRA     1      88.922 102.631 113.409  1.00  0.00     0.030 C 
HETATM    7  C7  GRA     1      88.976 103.571 112.171  1.00  0.00     0.025 C 
HETATM    8  C8  GRA     1      90.302 103.588 111.376  1.00  0.00    -0.062 C 
HETATM    9  C9  GRA     1      91.479 103.239 111.937  1.00  0.00     0.054 C 
HETATM   10  C10 GRA     1      92.809 103.465 111.307  1.00  0.00     0.155 C 
HETATM   11  O1  GRA     1      93.786 102.983 111.878  1.00  0.00    -0.293 OA
HETATM   12  C11 GRA     1      92.890 104.242 109.983  1.00  0.00     0.077 C 
HETATM   13  C12 GRA     1      94.296 104.905 109.645  1.00  0.00    -0.028 C 
HETATM   14  C13 GRA     1      95.390 103.798 109.561  1.00  0.00     0.013 C 
HETATM   15  C14 GRA     1      96.714 104.263 108.965  1.00  0.00     0.034 C 
HETATM   16  C15 GRA     1      96.565 104.878 107.576  1.00  0.00     0.133 C 
HETATM   17  C16 GRA     1      95.526 106.045 107.554  1.00  0.00    -0.017 C 
HETATM   18  C17 GRA     1      94.181 105.534 108.201  1.00  0.00     0.005 C 
HETATM   19  C18 GRA     1      93.005 106.524 108.107  1.00  0.00     0.007 C 
HETATM   20  C19 GRA     1      91.671 105.837 108.422  1.00  0.00     0.011 C 
HETATM   21  C20 GRA     1      91.615 105.156 109.816  1.00  0.00    -0.021 C 
HETATM   22  C21 GRA     1      90.297 104.223 109.975  1.00  0.00    -0.012 C 
HETATM   23  C22 GRA     1      88.989 105.039 109.786  1.00  0.00     0.015 C 
HETATM   24  C23 GRA     1      87.719 104.213 109.977  1.00  0.00     0.011 C 
HETATM   25  C24 GRA     1      90.288 103.061 108.934  1.00  0.00     0.021 C 
HETATM   26  C25 GRA     1      91.569 106.304 110.873  1.00  0.00     0.017 C 
HETATM   27  C26 GRA     1      95.280 106.403 106.061  1.00  0.00     0.018 C 
HETATM   28  C27 GRA     1      96.087 107.318 108.216  1.00  0.00     0.018 C 
HETATM   29  C40 GRA     1      94.715 105.909 110.743  1.00  0.00     0.016 C 
HETATM   30  C41 GRA     1      89.715 100.397 112.439  1.00  0.00     0.026 C 
ENDROOT
BRANCH  16  31
HETATM   31  O2  GRA     1      97.852 105.350 107.140  1.00  0.00    -0.352 OA
BRANCH  31  32
HETATM   32  C28 GRA     1      98.384 104.596 106.033  1.00  0.00     0.293 C 
HETATM   33  C29 GRA     1      99.922 104.555 106.115  1.00  0.00     0.211 C 
HETATM   34  C30 GRA     1     100.465 105.994 106.143  1.00  0.00     0.183 C 
HETATM   35  C31 GRA     1      99.615 106.965 105.302  1.00  0.00     0.189 C 
HETATM   36  C32 GRA     1      98.731 106.240 104.277  1.00  0.00     0.253 C 
HETATM   37  O3  GRA     1      97.909 105.207 104.835  1.00  0.00    -0.340 OA
BRANCH  33  38
HETATM   38  O8  GRA     1     100.383 103.890 107.309  1.00  0.00    -0.346 OA
BRANCH  38  39
HETATM   39  C34 GRA     1     101.380 102.891 107.041  1.00  0.00     0.293 C 
HETATM   40  C35 GRA     1     100.623 101.590 106.744  1.00  0.00     0.204 C 
HETATM   41  C36 GRA     1     101.618 100.437 106.591  1.00  0.00     0.183 C 
HETATM   42  C37 GRA     1     102.990 100.897 106.072  1.00  0.00     0.189 C 
HETATM   43  C38 GRA     1     102.914 102.223 105.298  1.00  0.00     0.253 C 
HETATM   44  O9  GRA     1     102.187 103.280 105.940  1.00  0.00    -0.340 OA
BRANCH  40  45
HETATM   45  O14 GRA     1      99.686 101.261 107.784  1.00  0.00    -0.388 OA
HETATM   46  H55 GRA     1      99.455 102.121 108.192  1.00  0.00     0.210 HD
ENDBRANCH  40  45
BRANCH  41  47
HETATM   47  O13 GRA     1     101.069  99.447 105.713  1.00  0.00    -0.390 OA
HETATM   48  H54 GRA     1     101.730  99.321 105.004  1.00  0.00     0.210 HD
ENDBRANCH  41  47
BRANCH  42  49
HETATM   49  O12 GRA     1     103.867 101.087 107.198  1.00  0.00    -0.390 OA
HETATM   50  H53 GRA     1     104.035 100.207 107.583  1.00  0.00     0.210 HD
ENDBRANCH  42  49
BRANCH  43  51
HETATM   51  C39 GRA     1     102.456 101.921 103.869  1.00  0.00     0.172 C 
HETATM   52  O10 GRA     1     101.400 102.281 103.372  1.00  0.00    -0.648 OA
BRANCH  51  53
HETATM   53  O11 GRA     1     103.346 101.222 103.140  1.00  0.00    -0.774 OA
HETATM   54  H52 GRA     1     103.225 100.285 103.411  1.00  0.00     0.167 HD
ENDBRANCH  51  53
ENDBRANCH  43  51
ENDBRANCH  38  39
ENDBRANCH  33  38
BRANCH  34  55
HETATM   55  O7  GRA     1     101.815 105.977 105.646  1.00  0.00    -0.390 OA
HETATM   56  H46 GRA     1     101.860 106.638 104.931  1.00  0.00     0.210 HD
ENDBRANCH  34  55
BRANCH  35  57
HETATM   57  O6  GRA     1      98.788 107.748 106.181  1.00  0.00    -0.390 OA
HETATM   58  H45 GRA     1      97.911 107.821 105.746  1.00  0.00     0.210 HD
ENDBRANCH  35  57
BRANCH  36  59
HETATM   59  C33 GRA     1      99.574 105.717 103.114  1.00  0.00     0.172 C 
HETATM   60  O4  GRA     1     100.687 106.099 102.789  1.00  0.00    -0.648 OA
BRANCH  59  61
HETATM   61  O5  GRA     1      98.981 104.717 102.430  1.00  0.00    -0.774 OA
HETATM   62  H44 GRA     1      99.725 104.277 101.963  1.00  0.00     0.167 HD
ENDBRANCH  59  61
ENDBRANCH  36  59
ENDBRANCH  31  32
ENDBRANCH  16  31
BRANCH   5  63
HETATM   63  C42 GRA     1      88.340 100.457 114.477  1.00  0.00     0.148 C 
HETATM   64  O15 GRA     1      88.584 100.913 115.582  1.00  0.00    -0.649 OA
BRANCH  63  65
HETATM   65  O16 GRA     1      87.856  99.204 114.365  1.00  0.00    -0.776 OA
HETATM   66  H62 GRA     1      87.872  98.862 115.284  1.00  0.00     0.167 HD
ENDBRANCH  63  65
ENDBRANCH   5  63
TORSDOF 15
ENDMDL
