MODEL 1
REMARK VINA RESULT:    -9.102      0.000      0.000
REMARK INTER + INTRA:         -13.138
REMARK INTER:                 -12.295
REMARK INTRA:                  -0.843
REMARK UNBOUND:                -0.843
REMARK  10 active torsions:
REMARK  status: ('A' for Active; 'I' for Inactive)
REMARK    1  A    between atoms: C5_5  and  O2_8 
REMARK    2  A    between atoms: C6_6  and  O1_7 
REMARK    3  A    between atoms: C10_14  and  O11_30 
REMARK    4  A    between atoms: C11_15  and  C14_19 
REMARK    5  A    between atoms: C12_16  and  O5_18 
REMARK    6  A    between atoms: C15_20  and  O10_29 
REMARK    7  A    between atoms: C16_21  and  O9_28 
REMARK    8  A    between atoms: C17_22  and  O8_27 
REMARK    9  A    between atoms: C18_23  and  C19_25 
REMARK   10  A    between atoms: C19_25  and  O7_26 
ROOT
HETATM    1  C1  MAN     1     102.540 100.318 105.579  1.00  0.00     0.057 A 
HETATM    2  C2  MAN     1     101.435 100.656 106.365  1.00  0.00     0.052 A 
HETATM    3  C3  MAN     1     101.077 101.991 106.565  1.00  0.00     0.093 A 
HETATM    4  C4  MAN     1     101.838 103.008 105.984  1.00  0.00     0.077 A 
HETATM    5  C5  MAN     1     102.945 102.671 105.216  1.00  0.00     0.101 A 
HETATM    6  C6  MAN     1     103.278 101.336 104.994  1.00  0.00     0.099 A 
HETATM    7  O3  MAN     1     100.001 102.386 107.321  1.00  0.00    -0.309 OA
HETATM    8  C7  MAN     1      99.228 101.417 107.912  1.00  0.00     0.095 A 
HETATM    9  C8  MAN     1      99.465 100.050 107.801  1.00  0.00     0.083 A 
HETATM   10  C9  MAN     1     100.615  99.614 106.995  1.00  0.00     0.200 A 
HETATM   11  O4  MAN     1     100.869  98.421 106.868  1.00  0.00    -0.286 OA
HETATM   12  C10 MAN     1      98.617  99.126 108.437  1.00  0.00     0.094 A 
HETATM   13  C11 MAN     1      97.537  99.565 109.222  1.00  0.00     0.041 A 
HETATM   14  C12 MAN     1      97.303 100.952 109.289  1.00  0.00     0.080 A 
HETATM   15  C13 MAN     1      98.137 101.872 108.653  1.00  0.00     0.075 A 
ENDROOT
BRANCH  13  16
HETATM   16  C14 MAN     1      96.598  98.625 109.962  1.00  0.00     0.192 C 
HETATM   17  C15 MAN     1      97.147  98.247 111.368  1.00  0.00     0.183 C 
HETATM   18  C16 MAN     1      96.334  98.898 112.495  1.00  0.00     0.181 C 
HETATM   19  C17 MAN     1      94.827  98.606 112.342  1.00  0.00     0.180 C 
HETATM   20  C18 MAN     1      94.427  98.373 110.872  1.00  0.00     0.177 C 
HETATM   21  O6  MAN     1      95.256  99.145 110.004  1.00  0.00    -0.368 OA
BRANCH  17  22
HETATM   22  O10 MAN     1      97.072  96.816 111.546  1.00  0.00    -0.390 OA
HETATM   23  H17 MAN     1      97.450  96.632 112.428  1.00  0.00     0.210 HD
ENDBRANCH  17  22
BRANCH  18  24
HETATM   24  O9  MAN     1      96.577 100.306 112.552  1.00  0.00    -0.390 OA
HETATM   25  H16 MAN     1      95.977 100.745 111.910  1.00  0.00     0.210 HD
ENDBRANCH  18  24
BRANCH  19  26
HETATM   26  O8  MAN     1      94.442  97.448 113.101  1.00  0.00    -0.390 OA
HETATM   27  H15 MAN     1      95.101  96.752 112.899  1.00  0.00     0.210 HD
ENDBRANCH  19  26
BRANCH  20  28
HETATM   28  C19 MAN     1      92.953  98.737 110.649  1.00  0.00     0.198 C 
BRANCH  28  29
HETATM   29  O7  MAN     1      92.398  99.425 111.768  1.00  0.00    -0.398 OA
HETATM   30  H14 MAN     1      92.196  98.761 112.457  1.00  0.00     0.209 HD
ENDBRANCH  28  29
ENDBRANCH  20  28
ENDBRANCH  13  16
BRANCH  12  31
HETATM   31  O11 MAN     1      98.805  97.774 108.277  1.00  0.00    -0.359 OA
HETATM   32  H18 MAN     1      98.446  97.314 109.073  1.00  0.00     0.217 HD
ENDBRANCH  12  31
BRANCH  14  33
HETATM   33  O5  MAN     1      96.211 101.401 109.981  1.00  0.00    -0.360 OA
HETATM   34  H6  MAN     1      95.564 101.771 109.353  1.00  0.00     0.217 HD
ENDBRANCH  14  33
BRANCH   6  35
HETATM   35  O1  MAN     1     104.320 101.010 104.177  1.00  0.00    -0.358 OA
HETATM   36  H3  MAN     1     103.956 100.440 103.475  1.00  0.00     0.217 HD
ENDBRANCH   6  35
BRANCH   5  37
HETATM   37  O2  MAN     1     103.718 103.673 104.706  1.00  0.00    -0.358 OA
HETATM   38  H4  MAN     1     104.251 103.276 103.991  1.00  0.00     0.217 HD
ENDBRANCH   5  37
TORSDOF 10
ENDMDL
