MODEL 1
REMARK VINA RESULT:   -10.251      0.000      0.000
REMARK INTER + INTRA:         -18.428
REMARK INTER:                 -16.244
REMARK INTRA:                  -2.183
REMARK UNBOUND:                -2.183
REMARK  14 active torsions:
REMARK  status: ('A' for Active; 'I' for Inactive)
REMARK    1  A    between atoms: C3_3  and  O14_41 
REMARK    2  A    between atoms: C4_4  and  O13_40 
REMARK    3  A    between atoms: C5_5  and  O12_39 
REMARK    4  A    between atoms: C6_6  and  O2_8 
REMARK    5  A    between atoms: O2_8  and  C7_9 
REMARK    6  A    between atoms: C8_10  and  O11_38 
REMARK    7  A    between atoms: C9_11  and  O10_37 
REMARK    8  A    between atoms: C10_12  and  C27_35 
REMARK    9  A    between atoms: C11_14  and  O4_15 
REMARK   10  A    between atoms: O4_15  and  C12_16 
REMARK   11  A    between atoms: C14_18  and  O8_34 
REMARK   12  A    between atoms: C18_23  and  C21_27 
REMARK   13  A    between atoms: C24_30  and  O7_33 
REMARK   14  A    between atoms: C27_35  and  O9_36 
ROOT
HETATM    1  C7  NAR     1      99.794 104.552 105.012  1.00  0.00     0.211 C 
HETATM    2  C8  NAR     1     100.220 104.566 103.533  1.00  0.00     0.183 C 
HETATM    3  C9  NAR     1     101.425 105.497 103.283  1.00  0.00     0.180 C 
HETATM    4  C10 NAR     1     101.503 106.598 104.356  1.00  0.00     0.179 C 
HETATM    5  O3  NAR     1     100.187 107.004 104.724  1.00  0.00    -0.348 OA
HETATM    6  C11 NAR     1      99.510 106.004 105.507  1.00  0.00     0.298 C 
ENDROOT
BRANCH   6   7
HETATM    7  O4  NAR     1      98.093 106.210 105.395  1.00  0.00    -0.318 OA
BRANCH   7   8
HETATM    8  C12 NAR     1      97.357 106.174 106.546  1.00  0.00     0.077 A 
HETATM    9  C13 NAR     1      96.980 107.282 107.306  1.00  0.00     0.074 A 
HETATM   10  C14 NAR     1      96.210 107.107 108.456  1.00  0.00     0.085 A 
HETATM   11  C15 NAR     1      95.813 105.828 108.853  1.00  0.00     0.076 A 
HETATM   12  C16 NAR     1      94.954 105.612 110.032  1.00  0.00     0.167 C 
HETATM   13  C19 NAR     1      96.196 104.719 108.099  1.00  0.00     0.089 A 
HETATM   14  O5  NAR     1      94.609 106.570 110.721  1.00  0.00    -0.292 OA
HETATM   15  C17 NAR     1      94.488 104.208 110.286  1.00  0.00     0.121 C 
HETATM   16  C18 NAR     1      95.580 103.255 109.819  1.00  0.00     0.169 C 
HETATM   17  O6  NAR     1      95.851 103.432 108.418  1.00  0.00    -0.340 OA
HETATM   18  C20 NAR     1      96.946 104.896 106.938  1.00  0.00     0.074 A 
BRANCH  10  19
HETATM   19  O8  NAR     1      95.865 108.240 109.144  1.00  0.00    -0.360 OA
HETATM   20  H24 NAR     1      95.221 107.990 109.845  1.00  0.00     0.217 HD
ENDBRANCH  10  19
BRANCH  16  21
HETATM   21  C21 NAR     1      95.166 101.815 110.063  1.00  0.00    -0.028 A 
HETATM   22  C22 NAR     1      93.829 101.472 110.328  1.00  0.00     0.012 A 
HETATM   23  C23 NAR     1      93.467 100.146 110.575  1.00  0.00     0.037 A 
HETATM   24  C24 NAR     1      94.444  99.156 110.560  1.00  0.00     0.065 A 
HETATM   25  C25 NAR     1      95.772  99.472 110.307  1.00  0.00     0.037 A 
HETATM   26  C26 NAR     1      96.134 100.798 110.060  1.00  0.00     0.012 A 
BRANCH  24  27
HETATM   27  O7  NAR     1      94.136  97.849 110.795  1.00  0.00    -0.361 OA
HETATM   28  H23 NAR     1      93.449  97.812 111.481  1.00  0.00     0.217 HD
ENDBRANCH  24  27
ENDBRANCH  16  21
ENDBRANCH   7   8
ENDBRANCH   6   7
BRANCH   1  29
HETATM   29  O2  NAR     1     100.857 103.950 105.775  1.00  0.00    -0.346 OA
BRANCH  29  30
HETATM   30  C6  NAR     1     100.723 102.530 105.883  1.00  0.00     0.292 C 
HETATM   31  C5  NAR     1     102.054 101.905 105.412  1.00  0.00     0.204 C 
HETATM   32  C4  NAR     1     102.206 100.467 105.928  1.00  0.00     0.183 C 
HETATM   33  C3  NAR     1     100.845  99.860 106.276  1.00  0.00     0.178 C 
HETATM   34  C2  NAR     1     100.149 100.732 107.341  1.00  0.00     0.152 C 
HETATM   35  C1  NAR     1      98.636 100.537 107.332  1.00  0.00     0.042 C 
HETATM   36  O1  NAR     1     100.442 102.135 107.217  1.00  0.00    -0.351 OA
BRANCH  31  37
HETATM   37  O12 NAR     1     102.125 101.910 103.972  1.00  0.00    -0.388 OA
HETATM   38  H30 NAR     1     102.917 102.439 103.748  1.00  0.00     0.210 HD
ENDBRANCH  31  37
BRANCH  32  39
HETATM   39  O13 NAR     1     102.857  99.631 104.958  1.00  0.00    -0.390 OA
HETATM   40  H31 NAR     1     103.660  99.290 105.412  1.00  0.00     0.210 HD
ENDBRANCH  32  39
BRANCH  33  41
HETATM   41  O14 NAR     1     101.011  98.523 106.754  1.00  0.00    -0.390 OA
HETATM   42  H32 NAR     1     100.649  97.952 106.045  1.00  0.00     0.210 HD
ENDBRANCH  33  41
ENDBRANCH  29  30
ENDBRANCH   1  29
BRANCH   2  43
HETATM   43  O11 NAR     1      99.111 104.956 102.706  1.00  0.00    -0.390 OA
HETATM   44  H29 NAR     1      99.092 104.368 101.927  1.00  0.00     0.210 HD
ENDBRANCH   2  43
BRANCH   4  45
HETATM   45  C27 NAR     1     102.283 107.810 103.835  1.00  0.00     0.198 C 
BRANCH  45  46
HETATM   46  O9  NAR     1     102.571 107.657 102.447  1.00  0.00    -0.398 OA
HETATM   47  H27 NAR     1     101.712 107.653 101.985  1.00  0.00     0.209 HD
ENDBRANCH  45  46
ENDBRANCH   4  45
BRANCH   3  48
HETATM   48  O10 NAR     1     102.649 104.753 103.265  1.00  0.00    -0.390 OA
HETATM   49  H28 NAR     1     102.778 104.432 104.182  1.00  0.00     0.210 HD
ENDBRANCH   3  48
TORSDOF 14
ENDMDL
