MODEL 1
REMARK VINA RESULT:    -7.647      0.000      0.000
REMARK INTER + INTRA:          -9.549
REMARK INTER:                  -9.211
REMARK INTRA:                  -0.338
REMARK UNBOUND:                -0.338
REMARK  5 active torsions:
REMARK  status: ('A' for Active; 'I' for Inactive)
REMARK    1  A    between atoms: C3_3  and  O3_17 
REMARK    2  A    between atoms: C6_6  and  C7_7 
REMARK    3  A    between atoms: C8_8  and  C9_9 
REMARK    4  A    between atoms: C11_11  and  O2_16 
REMARK    5  A    between atoms: C13_13  and  O1_15 
ROOT
HETATM    1  C9  RES     1     101.430 101.640 106.455  1.00  0.00    -0.031 A 
HETATM    2  C10 RES     1     101.967 100.559 105.742  1.00  0.00     0.048 A 
HETATM    3  C11 RES     1     101.636  99.253 106.095  1.00  0.00     0.069 A 
HETATM    4  C12 RES     1     100.766  98.998 107.148  1.00  0.00     0.073 A 
HETATM    5  C13 RES     1     100.221 100.070 107.843  1.00  0.00     0.069 A 
HETATM    6  C14 RES     1     100.539 101.385 107.506  1.00  0.00     0.048 A 
ENDROOT
BRANCH   1   7
HETATM    7  C8  RES     1     101.777 103.006 106.035  1.00  0.00     0.012 C 
HETATM    8  C7  RES     1     101.900 103.384 104.752  1.00  0.00     0.012 C 
BRANCH   8   9
HETATM    9  C6  RES     1     102.244 104.749 104.332  1.00  0.00    -0.036 A 
HETATM   10  C1  RES     1     103.138 105.552 105.057  1.00  0.00     0.014 A 
HETATM   11  C2  RES     1     103.419 106.857 104.643  1.00  0.00     0.037 A 
HETATM   12  C3  RES     1     102.797 107.366 103.509  1.00  0.00     0.065 A 
HETATM   13  C4  RES     1     101.898 106.592 102.786  1.00  0.00     0.037 A 
HETATM   14  C5  RES     1     101.617 105.288 103.200  1.00  0.00     0.014 A 
BRANCH  12  15
HETATM   15  O3  RES     1     103.041 108.632 103.070  1.00  0.00    -0.361 OA
HETATM   16  H12 RES     1     102.364 109.224 103.440  1.00  0.00     0.217 HD
ENDBRANCH  12  15
ENDBRANCH   8   9
ENDBRANCH   1   7
BRANCH   3  17
HETATM   17  O2  RES     1     102.194  98.240 105.373  1.00  0.00    -0.361 OA
HETATM   18  H11 RES     1     101.810  97.399 105.676  1.00  0.00     0.217 HD
ENDBRANCH   3  17
BRANCH   5  19
HETATM   19  O1  RES     1      99.358  99.788 108.864  1.00  0.00    -0.361 OA
HETATM   20  H10 RES     1      98.461  99.706 108.500  1.00  0.00     0.217 HD
ENDBRANCH   5  19
TORSDOF 5
ENDMDL
