MODEL 1
REMARK VINA RESULT:    -8.873      0.000      0.000
REMARK INTER + INTRA:         -11.025
REMARK INTER:                 -10.689
REMARK INTRA:                  -0.336
REMARK UNBOUND:                -0.336
REMARK  5 active torsions:
REMARK  status: ('A' for Active; 'I' for Inactive)
REMARK    1  A    between atoms: O1_2  and  C2_3 
REMARK    2  A    between atoms: C4_5  and  O6_22 
REMARK    3  A    between atoms: C8_10  and  C11_15 
REMARK    4  A    between atoms: C9_11  and  O4_14 
REMARK    5  A    between atoms: C14_18  and  O5_21 
ROOT
HETATM    1  C2  RHA     1     100.023 100.786 107.653  1.00  0.00     0.073 A 
HETATM    2  C3  RHA     1     100.687  99.668 107.144  1.00  0.00     0.074 A 
HETATM    3  C4  RHA     1     101.624  99.820 106.121  1.00  0.00     0.085 A 
HETATM    4  C5  RHA     1     101.902 101.087 105.603  1.00  0.00     0.084 A 
HETATM    5  C6  RHA     1     101.245 102.202 106.107  1.00  0.00     0.096 A 
HETATM    6  C7  RHA     1     100.308 102.053 107.129  1.00  0.00     0.075 A 
HETATM    7  O2  RHA     1     101.471 103.474 105.647  1.00  0.00    -0.306 OA
HETATM    8  C8  RHA     1     102.388 103.664 104.620  1.00  0.00     0.123 A 
HETATM    9  C9  RHA     1     103.095 102.670 104.051  1.00  0.00     0.152 A 
HETATM   10  C10 RHA     1     102.879 101.286 104.532  1.00  0.00     0.223 A 
HETATM   11  O3  RHA     1     103.506 100.349 104.042  1.00  0.00    -0.284 OA
ENDROOT
BRANCH   8  12
HETATM   12  C11 RHA     1     102.527 105.084 104.230  1.00  0.00     0.001 A 
HETATM   13  C12 RHA     1     101.841 105.570 103.104  1.00  0.00     0.017 A 
HETATM   14  C13 RHA     1     101.977 106.902 102.700  1.00  0.00     0.037 A 
HETATM   15  C14 RHA     1     102.807 107.753 103.420  1.00  0.00     0.065 A 
HETATM   16  C15 RHA     1     103.502 107.294 104.531  1.00  0.00     0.037 A 
HETATM   17  C16 RHA     1     103.366 105.963 104.933  1.00  0.00     0.017 A 
BRANCH  15  18
HETATM   18  O5  RHA     1     102.969 109.058 103.061  1.00  0.00    -0.361 OA
HETATM   19  H11 RHA     1     103.868 109.337 103.302  1.00  0.00     0.217 HD
ENDBRANCH  15  18
ENDBRANCH   8  12
BRANCH   9  20
HETATM   20  O4  RHA     1     104.031 102.850 103.050  1.00  0.00    -0.355 OA
HETATM   21  H6  RHA     1     104.339 101.949 102.815  1.00  0.00     0.218 HD
ENDBRANCH   9  20
BRANCH   3  22
HETATM   22  O6  RHA     1     102.236  98.680 105.673  1.00  0.00    -0.360 OA
HETATM   23  H12 RHA     1     103.105  98.595 106.124  1.00  0.00     0.217 HD
ENDBRANCH   3  22
BRANCH   1  24
HETATM   24  O1  RHA     1      99.087 100.780 108.649  1.00  0.00    -0.356 OA
HETATM   25  C1  RHA     1      99.003  99.603 109.446  1.00  0.00     0.210 C 
ENDBRANCH   1  24
TORSDOF 5
ENDMDL
