MODEL 1
REMARK VINA RESULT:    -9.942      0.000      0.000
REMARK INTER + INTRA:         -18.795
REMARK INTER:                 -16.335
REMARK INTRA:                  -2.460
REMARK UNBOUND:                -2.460
REMARK  16 active torsions:
REMARK  status: ('A' for Active; 'I' for Inactive)
REMARK    1  A    between atoms: C3_3  and  O16_43 
REMARK    2  A    between atoms: C4_4  and  O15_42 
REMARK    3  A    between atoms: C5_5  and  O14_41 
REMARK    4  A    between atoms: C6_6  and  O2_8 
REMARK    5  A    between atoms: O2_8  and  C7_9 
REMARK    6  A    between atoms: C7_9  and  C8_10 
REMARK    7  A    between atoms: C9_11  and  O13_40 
REMARK    8  A    between atoms: C10_12  and  O12_39 
REMARK    9  A    between atoms: C11_13  and  O11_38 
REMARK   10  A    between atoms: C12_14  and  O4_16 
REMARK   11  A    between atoms: O4_16  and  C13_17 
REMARK   12  A    between atoms: C14_18  and  C22_30 
REMARK   13  A    between atoms: C17_22  and  O8_29 
REMARK   14  A    between atoms: C19_24  and  O7_28 
REMARK   15  A    between atoms: C24_32  and  O10_37 
REMARK   16  A    between atoms: C25_33  and  O9_36 
ROOT
HETATM    1  C8  RUT     1      98.551 103.278 108.648  1.00  0.00     0.180 C 
HETATM    2  C9  RUT     1      97.367 102.298 108.605  1.00  0.00     0.180 C 
HETATM    3  C10 RUT     1      96.521 102.471 109.871  1.00  0.00     0.183 C 
HETATM    4  C11 RUT     1      96.361 103.936 110.296  1.00  0.00     0.205 C 
HETATM    5  C12 RUT     1      96.838 104.915 109.203  1.00  0.00     0.298 C 
HETATM    6  O3  RUT     1      98.162 104.654 108.716  1.00  0.00    -0.348 OA
ENDROOT
BRANCH   5   7
HETATM    7  O4  RUT     1      95.914 104.894 108.107  1.00  0.00    -0.311 OA
BRANCH   7   8
HETATM    8  C13 RUT     1      95.331 106.127 107.875  1.00  0.00     0.157 A 
HETATM    9  C14 RUT     1      95.851 107.026 107.018  1.00  0.00     0.124 A 
HETATM   10  O5  RUT     1      95.309 108.271 106.751  1.00  0.00    -0.306 OA
HETATM   11  C15 RUT     1      94.117 108.608 107.338  1.00  0.00     0.096 A 
HETATM   12  C16 RUT     1      93.583 109.855 107.018  1.00  0.00     0.075 A 
HETATM   13  C20 RUT     1      93.445 107.767 108.221  1.00  0.00     0.084 A 
HETATM   14  C17 RUT     1      92.375 110.251 107.585  1.00  0.00     0.071 A 
HETATM   15  C18 RUT     1      91.691 109.421 108.468  1.00  0.00     0.074 A 
HETATM   16  C19 RUT     1      92.231 108.176 108.785  1.00  0.00     0.085 A 
HETATM   17  C21 RUT     1      94.045 106.467 108.541  1.00  0.00     0.223 A 
HETATM   18  O6  RUT     1      93.496 105.710 109.340  1.00  0.00    -0.284 OA
BRANCH   9  19
HETATM   19  C22 RUT     1      97.105 106.777 106.287  1.00  0.00     0.004 A 
HETATM   20  C23 RUT     1      97.102 105.929 105.169  1.00  0.00     0.053 A 
HETATM   21  C24 RUT     1      98.294 105.680 104.495  1.00  0.00     0.099 A 
HETATM   22  C25 RUT     1      99.484 106.259 104.929  1.00  0.00     0.098 A 
HETATM   23  C26 RUT     1      99.504 107.097 106.033  1.00  0.00     0.040 A 
HETATM   24  C27 RUT     1      98.312 107.359 106.712  1.00  0.00     0.017 A 
BRANCH  21  25
HETATM   25  O10 RUT     1      98.346 104.868 103.395  1.00  0.00    -0.358 OA
HETATM   26  H24 RUT     1      98.868 105.316 102.708  1.00  0.00     0.217 HD
ENDBRANCH  21  25
BRANCH  22  27
HETATM   27  O9  RUT     1     100.649 106.001 104.269  1.00  0.00    -0.358 OA
HETATM   28  H23 RUT     1     101.302 105.833 104.977  1.00  0.00     0.217 HD
ENDBRANCH  22  27
ENDBRANCH   9  19
BRANCH  14  29
HETATM   29  O8  RUT     1      91.889 111.478 107.244  1.00  0.00    -0.361 OA
HETATM   30  H19 RUT     1      91.369 111.396 106.427  1.00  0.00     0.217 HD
ENDBRANCH  14  29
BRANCH  16  31
HETATM   31  O7  RUT     1      91.514 107.403 109.660  1.00  0.00    -0.360 OA
HETATM   32  H18 RUT     1      90.766 107.940 110.006  1.00  0.00     0.217 HD
ENDBRANCH  16  31
ENDBRANCH   7   8
ENDBRANCH   5   7
BRANCH   4  33
HETATM   33  O11 RUT     1      97.128 104.146 111.499  1.00  0.00    -0.388 OA
HETATM   34  H25 RUT     1      98.063 103.998 111.266  1.00  0.00     0.210 HD
ENDBRANCH   4  33
BRANCH   3  35
HETATM   35  O12 RUT     1      95.237 101.863 109.647  1.00  0.00    -0.390 OA
HETATM   36  H26 RUT     1      94.855 102.352 108.892  1.00  0.00     0.210 HD
ENDBRANCH   3  35
BRANCH   1  37
HETATM   37  C7  RUT     1      99.469 103.115 107.425  1.00  0.00     0.205 C 
BRANCH  37  38
HETATM   38  O2  RUT     1     100.486 102.142 107.696  1.00  0.00    -0.356 OA
BRANCH  38  39
HETATM   39  C6  RUT     1     100.575 101.175 106.641  1.00  0.00     0.291 C 
HETATM   40  C5  RUT     1     100.166 101.829 105.306  1.00  0.00     0.204 C 
HETATM   41  C4  RUT     1     101.248 102.793 104.826  1.00  0.00     0.183 C 
HETATM   42  C3  RUT     1     102.619 102.111 104.805  1.00  0.00     0.178 C 
HETATM   43  C2  RUT     1     102.911 101.524 106.194  1.00  0.00     0.152 C 
HETATM   44  C1  RUT     1     104.235 100.769 106.217  1.00  0.00     0.042 C 
HETATM   45  O1  RUT     1     101.887 100.607 106.589  1.00  0.00    -0.351 OA
BRANCH  40  46
HETATM   46  O14 RUT     1      99.947 100.835 104.289  1.00  0.00    -0.388 OA
HETATM   47  H28 RUT     1     100.790 100.802 103.792  1.00  0.00     0.210 HD
ENDBRANCH  40  46
BRANCH  41  48
HETATM   48  O15 RUT     1     100.923 103.241 103.497  1.00  0.00    -0.390 OA
HETATM   49  H29 RUT     1     101.141 104.196 103.499  1.00  0.00     0.210 HD
ENDBRANCH  41  48
BRANCH  42  50
HETATM   50  O16 RUT     1     103.585 103.092 104.407  1.00  0.00    -0.390 OA
HETATM   51  H30 RUT     1     103.643 103.749 105.124  1.00  0.00     0.210 HD
ENDBRANCH  42  50
ENDBRANCH  38  39
ENDBRANCH  37  38
ENDBRANCH   1  37
BRANCH   2  52
HETATM   52  O13 RUT     1      97.759 100.918 108.543  1.00  0.00    -0.390 OA
HETATM   53  H27 RUT     1      98.625 100.887 108.087  1.00  0.00     0.210 HD
ENDBRANCH   2  52
TORSDOF 16
ENDMDL
