MODEL 1
REMARK VINA RESULT:   -11.110      0.000      0.000
REMARK INTER + INTRA:         -15.839
REMARK INTER:                 -15.331
REMARK INTRA:                  -0.508
REMARK UNBOUND:                -0.508
REMARK  9 active torsions:
REMARK  status: ('A' for Active; 'I' for Inactive)
REMARK    1  A    between atoms: O1_2  and  C2_3 
REMARK    2  A    between atoms: C3_4  and  O10_35 
REMARK    3  A    between atoms: C6_7  and  C8_9 
REMARK    4  A    between atoms: C9_10  and  C25_33 
REMARK    5  A    between atoms: C13_16  and  C16_19 
REMARK    6  A    between atoms: C17_20  and  O8_32 
REMARK    7  A    between atoms: C20_24  and  O7_31 
REMARK    8  A    between atoms: C22_26  and  O6_30 
REMARK    9  A    between atoms: C25_33  and  O9_34 
ROOT
HETATM    1  C8  SIL     1     101.918 103.303 105.555  1.00  0.00     0.193 C 
HETATM    2  C9  SIL     1     101.806 102.147 104.545  1.00  0.00     0.186 C 
HETATM    3  O2  SIL     1     101.740 100.882 105.245  1.00  0.00    -0.338 OA
HETATM    4  C10 SIL     1     100.862 100.926 106.295  1.00  0.00     0.102 A 
HETATM    5  C11 SIL     1     100.374 102.115 106.837  1.00  0.00     0.103 A 
HETATM    6  O3  SIL     1     100.740 103.354 106.383  1.00  0.00    -0.336 OA
HETATM    7  C12 SIL     1      99.457 102.082 107.888  1.00  0.00     0.049 A 
HETATM    8  C13 SIL     1      99.042 100.857 108.436  1.00  0.00    -0.023 A 
HETATM    9  C14 SIL     1      99.557  99.668 107.891  1.00  0.00     0.013 A 
HETATM   10  C15 SIL     1     100.465  99.704 106.830  1.00  0.00     0.040 A 
ENDROOT
BRANCH   8  11
HETATM   11  C16 SIL     1      98.033 100.795 109.575  1.00  0.00     0.198 C 
HETATM   12  C17 SIL     1      97.910  99.372 110.131  1.00  0.00     0.227 C 
HETATM   13  C18 SIL     1      96.825  99.358 111.191  1.00  0.00     0.196 C 
HETATM   14  O4  SIL     1      96.839  98.577 112.143  1.00  0.00    -0.289 OA
HETATM   15  C19 SIL     1      95.708 100.299 111.025  1.00  0.00     0.079 A 
HETATM   16  C20 SIL     1      94.608 100.288 111.892  1.00  0.00     0.085 A 
HETATM   17  C24 SIL     1      95.744 101.198 109.960  1.00  0.00     0.089 A 
HETATM   18  C21 SIL     1      93.541 101.159 111.688  1.00  0.00     0.074 A 
HETATM   19  C22 SIL     1      93.578 102.034 110.608  1.00  0.00     0.071 A 
HETATM   20  C23 SIL     1      94.668 102.058 109.741  1.00  0.00     0.074 A 
HETATM   21  O5  SIL     1      96.776 101.278 109.067  1.00  0.00    -0.337 OA
BRANCH  12  22
HETATM   22  O8  SIL     1      99.128  98.936 110.743  1.00  0.00    -0.385 OA
HETATM   23  H18 SIL     1      99.203  97.978 110.554  1.00  0.00     0.210 HD
ENDBRANCH  12  22
BRANCH  16  24
HETATM   24  O7  SIL     1      94.509  99.439 112.963  1.00  0.00    -0.360 OA
HETATM   25  H17 SIL     1      95.394  99.367 113.385  1.00  0.00     0.217 HD
ENDBRANCH  16  24
BRANCH  19  26
HETATM   26  O6  SIL     1      92.554 102.899 110.360  1.00  0.00    -0.361 OA
HETATM   27  H16 SIL     1      92.642 103.242 109.454  1.00  0.00     0.217 HD
ENDBRANCH  19  26
ENDBRANCH   8  11
BRANCH   1  28
HETATM   28  C6  SIL     1     102.057 104.668 104.906  1.00  0.00    -0.024 A 
HETATM   29  C5  SIL     1     103.207 105.447 105.101  1.00  0.00     0.013 A 
HETATM   30  C4  SIL     1     103.317 106.708 104.517  1.00  0.00     0.040 A 
HETATM   31  C3  SIL     1     102.277 107.196 103.729  1.00  0.00     0.099 A 
HETATM   32  C2  SIL     1     101.120 106.438 103.507  1.00  0.00     0.101 A 
HETATM   33  C7  SIL     1     101.019 105.174 104.100  1.00  0.00     0.049 A 
BRANCH  31  34
HETATM   34  O10 SIL     1     102.384 108.436 103.155  1.00  0.00    -0.358 OA
HETATM   35  H22 SIL     1     102.846 109.029 103.767  1.00  0.00     0.217 HD
ENDBRANCH  31  34
BRANCH  32  36
HETATM   36  O1  SIL     1     100.162 107.014 102.715  1.00  0.00    -0.353 OA
HETATM   37  C1  SIL     1      98.858 107.159 103.258  1.00  0.00     0.210 C 
ENDBRANCH  32  36
ENDBRANCH   1  28
BRANCH   2  38
HETATM   38  C25 SIL     1     103.024 102.055 103.619  1.00  0.00     0.199 C 
BRANCH  38  39
HETATM   39  O9  SIL     1     103.689 100.802 103.804  1.00  0.00    -0.398 OA
HETATM   40  H21 SIL     1     104.265 100.682 103.025  1.00  0.00     0.209 HD
ENDBRANCH  38  39
ENDBRANCH   2  38
TORSDOF 9
ENDMDL
