MODEL 1
REMARK VINA RESULT:    -9.359      0.000      0.000
REMARK INTER + INTRA:         -14.342
REMARK INTER:                 -12.915
REMARK INTRA:                  -1.428
REMARK UNBOUND:                -1.428
REMARK  10 active torsions:
REMARK  status: ('A' for Active; 'I' for Inactive)
REMARK    1  A    between atoms: C3_3  and  O10_31 
REMARK    2  A    between atoms: C6_6  and  C7_7 
REMARK    3  A    between atoms: C12_14  and  C16_20 
REMARK    4  A    between atoms: C13_15  and  O4_19 
REMARK    5  A    between atoms: C15_17  and  O3_18 
REMARK    6  A    between atoms: C17_21  and  O9_30 
REMARK    7  A    between atoms: C18_22  and  O8_29 
REMARK    8  A    between atoms: C19_23  and  O7_28 
REMARK    9  A    between atoms: C20_24  and  C21_26 
REMARK   10  A    between atoms: C21_26  and  O6_27 
ROOT
HETATM    1  C7  VIT     1      99.813 100.627 107.072  1.00  0.00     0.090 A 
HETATM    2  C8  VIT     1     100.748  99.696 106.838  1.00  0.00     0.094 A 
HETATM    3  C9  VIT     1     101.814  99.992 105.875  1.00  0.00     0.190 A 
HETATM    4  O1  VIT     1     102.689  99.172 105.619  1.00  0.00    -0.287 OA
HETATM    5  C10 VIT     1     101.787 101.308 105.223  1.00  0.00     0.082 A 
HETATM    6  C11 VIT     1     100.772 102.205 105.564  1.00  0.00     0.104 A 
HETATM    7  O2  VIT     1      99.798 101.878 106.479  1.00  0.00    -0.308 OA
HETATM    8  C12 VIT     1     100.712 103.483 104.966  1.00  0.00     0.041 A 
HETATM    9  C13 VIT     1     101.693 103.804 104.010  1.00  0.00     0.080 A 
HETATM   10  C14 VIT     1     102.705 102.906 103.665  1.00  0.00     0.074 A 
HETATM   11  C15 VIT     1     102.752 101.661 104.276  1.00  0.00     0.085 A 
ENDROOT
BRANCH   8  12
HETATM   12  C16 VIT     1      99.631 104.490 105.330  1.00  0.00     0.192 C 
HETATM   13  C17 VIT     1      99.937 105.258 106.647  1.00  0.00     0.183 C 
HETATM   14  C18 VIT     1      99.324 106.678 106.629  1.00  0.00     0.181 C 
HETATM   15  C19 VIT     1      98.023 106.678 105.817  1.00  0.00     0.180 C 
HETATM   16  C20 VIT     1      98.279 106.201 104.363  1.00  0.00     0.177 C 
HETATM   17  O5  VIT     1      99.467 105.398 104.232  1.00  0.00    -0.368 OA
BRANCH  13  18
HETATM   18  O9  VIT     1      99.403 104.529 107.768  1.00  0.00    -0.390 OA
HETATM   19  H19 VIT     1      98.937 103.754 107.390  1.00  0.00     0.210 HD
ENDBRANCH  13  18
BRANCH  14  20
HETATM   20  O8  VIT     1     100.224 107.651 106.095  1.00  0.00    -0.390 OA
HETATM   21  H18 VIT     1     100.387 108.316 106.788  1.00  0.00     0.210 HD
ENDBRANCH  14  20
BRANCH  15  22
HETATM   22  O7  VIT     1      97.102 105.777 106.469  1.00  0.00    -0.390 OA
HETATM   23  H17 VIT     1      96.389 106.336 106.833  1.00  0.00     0.210 HD
ENDBRANCH  15  22
BRANCH  16  24
HETATM   24  C21 VIT     1      98.412 107.381 103.395  1.00  0.00     0.198 C 
BRANCH  24  25
HETATM   25  O6  VIT     1      99.781 107.608 103.069  1.00  0.00    -0.398 OA
HETATM   26  H16 VIT     1     100.201 107.961 103.874  1.00  0.00     0.209 HD
ENDBRANCH  24  25
ENDBRANCH  16  24
ENDBRANCH   8  12
BRANCH   9  27
HETATM   27  O4  VIT     1     101.656 105.028 103.401  1.00  0.00    -0.360 OA
HETATM   28  H8  VIT     1     102.565 105.327 103.230  1.00  0.00     0.217 HD
ENDBRANCH   9  27
BRANCH  11  29
HETATM   29  O3  VIT     1     103.770 100.829 103.897  1.00  0.00    -0.360 OA
HETATM   30  H7  VIT     1     104.536 101.384 103.626  1.00  0.00     0.217 HD
ENDBRANCH  11  29
BRANCH   1  31
HETATM   31  C6  VIT     1      98.708 100.397 108.023  1.00  0.00    -0.002 A 
HETATM   32  C1  VIT     1      97.919 101.453 108.511  1.00  0.00     0.017 A 
HETATM   33  C2  VIT     1      96.887 101.216 109.426  1.00  0.00     0.037 A 
HETATM   34  C3  VIT     1      96.647  99.918 109.865  1.00  0.00     0.065 A 
HETATM   35  C4  VIT     1      97.420  98.861 109.406  1.00  0.00     0.037 A 
HETATM   36  C5  VIT     1      98.448  99.100 108.489  1.00  0.00     0.017 A 
BRANCH  34  37
HETATM   37  O10 VIT     1      95.655  99.641 110.757  1.00  0.00    -0.361 OA
HETATM   38  H20 VIT     1      94.798  99.792 110.329  1.00  0.00     0.217 HD
ENDBRANCH  34  37
ENDBRANCH   1  31
TORSDOF 10
ENDMDL
