MODEL 1
REMARK VINA RESULT:      -6.7      0.000      0.000
REMARK  3 active torsions:
REMARK  status: ('A' for Active; 'I' for Inactive)
REMARK    1  A    between atoms: C7_9  and  C18_24 
REMARK    2  A    between atoms: C12_15  and  N2_16 
REMARK    3  A    between atoms: C18_24  and  O4_26 
ROOT
HETATM    1  C1  LFX     1      17.658  -1.244  -5.539  1.00  0.00     0.035 C 
HETATM    2  C2  LFX     1      17.711  -2.247  -4.383  1.00  0.00     0.110 C 
HETATM    3  C3  LFX     1      19.094  -2.301  -3.730  1.00  0.00     0.201 C 
HETATM    4  O1  LFX     1      19.450  -1.051  -3.138  1.00  0.00    -0.344 OA
HETATM    5  C4  LFX     1      18.491  -0.604  -2.243  1.00  0.00     0.126 A 
HETATM    6  C5  LFX     1      17.145  -1.030  -2.344  1.00  0.00     0.085 A 
HETATM    7  N1  LFX     1      16.704  -1.901  -3.367  1.00  0.00    -0.346 N 
HETATM    8  C6  LFX     1      15.372  -2.260  -3.440  1.00  0.00     0.114 A 
HETATM    9  C7  LFX     1      14.402  -1.891  -2.585  1.00  0.00     0.104 A 
HETATM   10  C8  LFX     1      14.808  -1.004  -1.461  1.00  0.00     0.202 A 
HETATM   11  O2  LFX     1      14.023  -0.631  -0.596  1.00  0.00    -0.286 OA
HETATM   12  C9  LFX     1      16.226  -0.565  -1.392  1.00  0.00     0.048 A 
HETATM   13  C10 LFX     1      16.625   0.313  -0.384  1.00  0.00     0.062 A 
HETATM   14  C11 LFX     1      17.949   0.736  -0.321  1.00  0.00     0.146 A 
HETATM   15  C12 LFX     1      18.925   0.298  -1.237  1.00  0.00     0.105 A 
HETATM   16  F1  LFX     1      18.261   1.617   0.644  1.00  0.00    -0.204 F 
ENDROOT
BRANCH  15  17
HETATM   17  N2  LFX     1      20.273   0.718  -1.201  1.00  0.00    -0.373 N 
HETATM   18  C13 LFX     1      21.139   0.249  -0.097  1.00  0.00     0.153 C 
HETATM   19  C14 LFX     1      21.498   1.387   0.886  1.00  0.00     0.291 C 
HETATM   20  N3  LFX     1      22.163   2.558   0.267  1.00  0.00     0.087 N 
HETATM   21  C15 LFX     1      21.833   2.664  -1.173  1.00  0.00     0.291 C 
HETATM   22  C17 LFX     1      23.609   2.527   0.460  1.00  0.00     0.310 C 
HETATM   23  C16 LFX     1      20.413   2.161  -1.518  1.00  0.00     0.153 C 
ENDBRANCH  15  17
BRANCH   9  24
HETATM   24  C18 LFX     1      13.007  -2.335  -2.774  1.00  0.00     0.181 C 
HETATM   25  O3  LFX     1      12.604  -3.475  -2.911  1.00  0.00    -0.646 OA
BRANCH  24  26
HETATM   26  O4  LFX     1      12.119  -1.318  -2.785  1.00  0.00    -0.773 OA
HETATM   27  H20 LFX     1      11.410  -1.659  -3.373  1.00  0.00     0.167 HD
ENDBRANCH  24  26
ENDBRANCH   9  24
TORSDOF 3
ENDMDL
