MODEL 1
REMARK VINA RESULT:      -6.5      0.000      0.000
REMARK  3 active torsions:
REMARK  status: ('A' for Active; 'I' for Inactive)
REMARK    1  A    between atoms: C7_9  and  C18_24 
REMARK    2  A    between atoms: C12_15  and  N2_16 
REMARK    3  A    between atoms: C18_24  and  O4_26 
ROOT
HETATM    1  C1  LFX     1      18.572 -12.251 -11.578  1.00  0.00     0.035 C 
HETATM    2  C2  LFX     1      18.492 -13.438 -12.541  1.00  0.00     0.110 C 
HETATM    3  C3  LFX     1      17.402 -13.249 -13.599  1.00  0.00     0.201 C 
HETATM    4  O1  LFX     1      17.667 -12.123 -14.437  1.00  0.00    -0.344 OA
HETATM    5  C4  LFX     1      18.923 -12.187 -15.018  1.00  0.00     0.126 A 
HETATM    6  C5  LFX     1      19.963 -12.939 -14.424  1.00  0.00     0.085 A 
HETATM    7  N1  LFX     1      19.790 -13.637 -13.206  1.00  0.00    -0.346 N 
HETATM    8  C6  LFX     1      20.849 -14.331 -12.652  1.00  0.00     0.114 A 
HETATM    9  C7  LFX     1      22.077 -14.460 -13.182  1.00  0.00     0.104 A 
HETATM   10  C8  LFX     1      22.315 -13.782 -14.485  1.00  0.00     0.202 A 
HETATM   11  O2  LFX     1      23.381 -13.857 -15.086  1.00  0.00    -0.286 OA
HETATM   12  C9  LFX     1      21.205 -12.988 -15.074  1.00  0.00     0.048 A 
HETATM   13  C10 LFX     1      21.415 -12.293 -16.266  1.00  0.00     0.062 A 
HETATM   14  C11 LFX     1      20.383 -11.540 -16.816  1.00  0.00     0.146 A 
HETATM   15  C12 LFX     1      19.109 -11.458 -16.222  1.00  0.00     0.105 A 
HETATM   16  F1  LFX     1      20.660 -10.857 -17.939  1.00  0.00    -0.204 F 
ENDROOT
BRANCH  15  17
HETATM   17  N2  LFX     1      18.047 -10.695 -16.755  1.00  0.00    -0.373 N 
HETATM   18  C13 LFX     1      17.554 -11.007 -18.115  1.00  0.00     0.153 C 
HETATM   19  C14 LFX     1      17.920  -9.903 -19.134  1.00  0.00     0.291 C 
HETATM   20  N3  LFX     1      17.434  -8.547 -18.786  1.00  0.00     0.087 N 
HETATM   21  C15 LFX     1      17.226  -8.410 -17.325  1.00  0.00     0.291 C 
HETATM   22  C17 LFX     1      16.215  -8.203 -19.511  1.00  0.00     0.310 C 
HETATM   23  C16 LFX     1      18.214  -9.246 -16.481  1.00  0.00     0.153 C 
ENDBRANCH  15  17
BRANCH   9  24
HETATM   24  C18 LFX     1      23.132 -15.224 -12.488  1.00  0.00     0.181 C 
HETATM   25  O3  LFX     1      23.379 -15.231 -11.296  1.00  0.00    -0.646 OA
BRANCH  24  26
HETATM   26  O4  LFX     1      23.876 -15.986 -13.318  1.00  0.00    -0.773 OA
HETATM   27  H20 LFX     1      24.218 -16.684 -12.718  1.00  0.00     0.167 HD
ENDBRANCH  24  26
ENDBRANCH   9  24
TORSDOF 3
ENDMDL
