MODEL 1
REMARK VINA RESULT:      -6.2      0.000      0.000
REMARK  3 active torsions:
REMARK  status: ('A' for Active; 'I' for Inactive)
REMARK    1  A    between atoms: C7_9  and  C18_24 
REMARK    2  A    between atoms: C12_15  and  N2_16 
REMARK    3  A    between atoms: C18_24  and  O4_26 
ROOT
HETATM    1  C1  LFX     1       4.516 -52.057  -2.063  1.00  0.00     0.035 C 
HETATM    2  C2  LFX     1       5.827 -51.632  -1.395  1.00  0.00     0.110 C 
HETATM    3  C3  LFX     1       6.045 -52.336  -0.054  1.00  0.00     0.201 C 
HETATM    4  O1  LFX     1       6.164 -53.750  -0.212  1.00  0.00    -0.344 OA
HETATM    5  C4  LFX     1       7.149 -54.094  -1.124  1.00  0.00     0.126 A 
HETATM    6  C5  LFX     1       7.553 -53.191  -2.135  1.00  0.00     0.085 A 
HETATM    7  N1  LFX     1       6.963 -51.915  -2.287  1.00  0.00    -0.346 N 
HETATM    8  C6  LFX     1       7.373 -51.083  -3.311  1.00  0.00     0.114 A 
HETATM    9  C7  LFX     1       8.344 -51.342  -4.204  1.00  0.00     0.104 A 
HETATM   10  C8  LFX     1       9.033 -52.654  -4.076  1.00  0.00     0.202 A 
HETATM   11  O2  LFX     1       9.959 -52.990  -4.806  1.00  0.00    -0.286 OA
HETATM   12  C9  LFX     1       8.574 -53.585  -3.011  1.00  0.00     0.048 A 
HETATM   13  C10 LFX     1       9.162 -54.846  -2.902  1.00  0.00     0.062 A 
HETATM   14  C11 LFX     1       8.729 -55.726  -1.915  1.00  0.00     0.146 A 
HETATM   15  C12 LFX     1       7.717 -55.388  -0.995  1.00  0.00     0.105 A 
HETATM   16  F1  LFX     1       9.300 -56.941  -1.889  1.00  0.00    -0.204 F 
ENDROOT
BRANCH  15  17
HETATM   17  N2  LFX     1       7.254 -56.264   0.012  1.00  0.00    -0.373 N 
HETATM   18  C13 LFX     1       8.091 -56.482   1.212  1.00  0.00     0.153 C 
HETATM   19  C14 LFX     1       8.701 -57.902   1.247  1.00  0.00     0.291 C 
HETATM   20  N3  LFX     1       7.714 -59.006   1.189  1.00  0.00     0.087 N 
HETATM   21  C15 LFX     1       6.456 -58.567   0.541  1.00  0.00     0.291 C 
HETATM   22  C17 LFX     1       7.443 -59.563   2.510  1.00  0.00     0.310 C 
HETATM   23  C16 LFX     1       6.668 -57.503  -0.559  1.00  0.00     0.153 C 
ENDBRANCH  15  17
BRANCH   9  24
HETATM   24  C18 LFX     1       8.686 -50.374  -5.264  1.00  0.00     0.181 C 
HETATM   25  O3  LFX     1       7.920 -49.781  -6.002  1.00  0.00    -0.646 OA
BRANCH  24  26
HETATM   26  O4  LFX     1      10.013 -50.155  -5.381  1.00  0.00    -0.773 OA
HETATM   27  H20 LFX     1      10.286 -50.839  -6.030  1.00  0.00     0.167 HD
ENDBRANCH  24  26
ENDBRANCH   9  24
TORSDOF 3
ENDMDL
