MODEL 1
REMARK VINA RESULT:      -6.6      0.000      0.000
REMARK  3 active torsions:
REMARK  status: ('A' for Active; 'I' for Inactive)
REMARK    1  A    between atoms: C7_9  and  C18_24 
REMARK    2  A    between atoms: C12_15  and  N2_16 
REMARK    3  A    between atoms: C18_24  and  O4_26 
ROOT
HETATM    1  C1  LFX     1      17.584  -1.075  -6.090  1.00  0.00     0.035 C 
HETATM    2  C2  LFX     1      17.840  -2.105  -4.986  1.00  0.00     0.110 C 
HETATM    3  C3  LFX     1      19.317  -2.170  -4.590  1.00  0.00     0.201 C 
HETATM    4  O1  LFX     1      19.772  -0.933  -4.039  1.00  0.00    -0.344 OA
HETATM    5  C4  LFX     1      18.987  -0.511  -2.978  1.00  0.00     0.126 A 
HETATM    6  C5  LFX     1      17.645  -0.940  -2.851  1.00  0.00     0.085 A 
HETATM    7  N1  LFX     1      17.029  -1.788  -3.800  1.00  0.00    -0.346 N 
HETATM    8  C6  LFX     1      15.705  -2.151  -3.645  1.00  0.00     0.114 A 
HETATM    9  C7  LFX     1      14.902  -1.806  -2.624  1.00  0.00     0.104 A 
HETATM   10  C8  LFX     1      15.500  -0.945  -1.568  1.00  0.00     0.202 A 
HETATM   11  O2  LFX     1      14.881  -0.595  -0.569  1.00  0.00    -0.286 OA
HETATM   12  C9  LFX     1      16.909  -0.502  -1.740  1.00  0.00     0.048 A 
HETATM   13  C10 LFX     1      17.480   0.353  -0.797  1.00  0.00     0.062 A 
HETATM   14  C11 LFX     1      18.794   0.780  -0.959  1.00  0.00     0.146 A 
HETATM   15  C12 LFX     1      19.592   0.368  -2.043  1.00  0.00     0.105 A 
HETATM   16  F1  LFX     1      19.273   1.638  -0.043  1.00  0.00    -0.204 F 
ENDROOT
BRANCH  15  17
HETATM   17  N2  LFX     1      20.926   0.792  -2.236  1.00  0.00    -0.373 N 
HETATM   18  C13 LFX     1      21.972   0.308  -1.308  1.00  0.00     0.153 C 
HETATM   19  C14 LFX     1      22.495   1.432  -0.384  1.00  0.00     0.291 C 
HETATM   20  N3  LFX     1      23.041   2.615  -1.090  1.00  0.00     0.087 N 
HETATM   21  C15 LFX     1      22.465   2.743  -2.448  1.00  0.00     0.291 C 
HETATM   22  C17 LFX     1      24.499   2.586  -1.153  1.00  0.00     0.310 C 
HETATM   23  C16 LFX     1      21.007   2.241  -2.548  1.00  0.00     0.153 C 
ENDBRANCH  15  17
BRANCH   9  24
HETATM   24  C18 LFX     1      13.495  -2.250  -2.574  1.00  0.00     0.181 C 
HETATM   25  O3  LFX     1      13.070  -3.383  -2.713  1.00  0.00    -0.646 OA
BRANCH  24  26
HETATM   26  O4  LFX     1      12.625  -1.246  -2.341  1.00  0.00    -0.773 OA
HETATM   27  H20 LFX     1      12.888  -0.574  -3.007  1.00  0.00     0.167 HD
ENDBRANCH  24  26
ENDBRANCH   9  24
TORSDOF 3
ENDMDL
