MODEL 1
REMARK VINA RESULT:      -6.2      0.000      0.000
REMARK  3 active torsions:
REMARK  status: ('A' for Active; 'I' for Inactive)
REMARK    1  A    between atoms: C7_9  and  C18_24 
REMARK    2  A    between atoms: C12_15  and  N2_16 
REMARK    3  A    between atoms: C18_24  and  O4_26 
ROOT
HETATM    1  C1  LFX     1       4.570 -52.018  -2.069  1.00  0.00     0.035 C 
HETATM    2  C2  LFX     1       5.888 -51.590  -1.417  1.00  0.00     0.110 C 
HETATM    3  C3  LFX     1       6.118 -52.285  -0.073  1.00  0.00     0.201 C 
HETATM    4  O1  LFX     1       6.233 -53.701  -0.222  1.00  0.00    -0.344 OA
HETATM    5  C4  LFX     1       7.208 -54.054  -1.141  1.00  0.00     0.126 A 
HETATM    6  C5  LFX     1       7.604 -53.158  -2.162  1.00  0.00     0.085 A 
HETATM    7  N1  LFX     1       7.015 -51.882  -2.318  1.00  0.00    -0.346 N 
HETATM    8  C6  LFX     1       7.416 -51.059  -3.352  1.00  0.00     0.114 A 
HETATM    9  C7  LFX     1       8.378 -51.326  -4.253  1.00  0.00     0.104 A 
HETATM   10  C8  LFX     1       9.066 -52.639  -4.121  1.00  0.00     0.202 A 
HETATM   11  O2  LFX     1       9.984 -52.982  -4.858  1.00  0.00    -0.286 OA
HETATM   12  C9  LFX     1       8.616 -53.561  -3.046  1.00  0.00     0.048 A 
HETATM   13  C10 LFX     1       9.202 -54.822  -2.933  1.00  0.00     0.062 A 
HETATM   14  C11 LFX     1       8.777 -55.694  -1.935  1.00  0.00     0.146 A 
HETATM   15  C12 LFX     1       7.775 -55.348  -1.008  1.00  0.00     0.105 A 
HETATM   16  F1  LFX     1       9.347 -56.910  -1.906  1.00  0.00    -0.204 F 
ENDROOT
BRANCH  15  17
HETATM   17  N2  LFX     1       7.320 -56.215   0.010  1.00  0.00    -0.373 N 
HETATM   18  C13 LFX     1       8.192 -56.468   1.178  1.00  0.00     0.153 C 
HETATM   19  C14 LFX     1       8.757 -57.907   1.183  1.00  0.00     0.291 C 
HETATM   20  N3  LFX     1       7.733 -58.979   1.153  1.00  0.00     0.087 N 
HETATM   21  C15 LFX     1       6.468 -58.495   0.554  1.00  0.00     0.291 C 
HETATM   22  C17 LFX     1       7.491 -59.536   2.480  1.00  0.00     0.310 C 
HETATM   23  C16 LFX     1       6.675 -57.431  -0.547  1.00  0.00     0.153 C 
ENDBRANCH  15  17
BRANCH   9  24
HETATM   24  C18 LFX     1       8.711 -50.366  -5.322  1.00  0.00     0.181 C 
HETATM   25  O3  LFX     1       7.951 -49.856  -6.124  1.00  0.00    -0.646 OA
BRANCH  24  26
HETATM   26  O4  LFX     1      10.023 -50.051  -5.368  1.00  0.00    -0.773 OA
HETATM   27  H20 LFX     1      10.041 -49.150  -4.977  1.00  0.00     0.167 HD
ENDBRANCH  24  26
ENDBRANCH   9  24
TORSDOF 3
ENDMDL
