MODEL 1
REMARK VINA RESULT:      -6.7      0.000      0.000
REMARK  3 active torsions:
REMARK  status: ('A' for Active; 'I' for Inactive)
REMARK    1  A    between atoms: C7_9  and  C18_24 
REMARK    2  A    between atoms: C12_15  and  N2_16 
REMARK    3  A    between atoms: C18_24  and  O4_26 
ROOT
HETATM    1  C1  LFX     1      17.732  -1.131  -5.510  1.00  0.00     0.035 C 
HETATM    2  C2  LFX     1      17.800  -2.147  -4.367  1.00  0.00     0.110 C 
HETATM    3  C3  LFX     1      19.188  -2.198  -3.723  1.00  0.00     0.201 C 
HETATM    4  O1  LFX     1      19.536  -0.952  -3.117  1.00  0.00    -0.344 OA
HETATM    5  C4  LFX     1      18.579  -0.524  -2.211  1.00  0.00     0.126 A 
HETATM    6  C5  LFX     1      17.237  -0.960  -2.310  1.00  0.00     0.085 A 
HETATM    7  N1  LFX     1      16.796  -1.822  -3.341  1.00  0.00    -0.346 N 
HETATM    8  C6  LFX     1      15.467  -2.192  -3.410  1.00  0.00     0.114 A 
HETATM    9  C7  LFX     1      14.499  -1.842  -2.545  1.00  0.00     0.104 A 
HETATM   10  C8  LFX     1      14.904  -0.966  -1.413  1.00  0.00     0.202 A 
HETATM   11  O2  LFX     1      14.122  -0.610  -0.539  1.00  0.00    -0.286 OA
HETATM   12  C9  LFX     1      16.319  -0.515  -1.347  1.00  0.00     0.048 A 
HETATM   13  C10 LFX     1      16.717   0.353  -0.330  1.00  0.00     0.062 A 
HETATM   14  C11 LFX     1      18.037   0.787  -0.270  1.00  0.00     0.146 A 
HETATM   15  C12 LFX     1      19.011   0.369  -1.197  1.00  0.00     0.105 A 
HETATM   16  F1  LFX     1      18.348   1.658   0.705  1.00  0.00    -0.204 F 
ENDROOT
BRANCH  15  17
HETATM   17  N2  LFX     1      20.356   0.799  -1.164  1.00  0.00    -0.373 N 
HETATM   18  C13 LFX     1      21.233   0.325  -0.070  1.00  0.00     0.153 C 
HETATM   19  C14 LFX     1      21.587   1.455   0.923  1.00  0.00     0.291 C 
HETATM   20  N3  LFX     1      22.239   2.639   0.315  1.00  0.00     0.087 N 
HETATM   21  C15 LFX     1      21.899   2.759  -1.122  1.00  0.00     0.291 C 
HETATM   22  C17 LFX     1      23.687   2.617   0.499  1.00  0.00     0.310 C 
HETATM   23  C16 LFX     1      20.482   2.248  -1.465  1.00  0.00     0.153 C 
ENDBRANCH  15  17
BRANCH   9  24
HETATM   24  C18 LFX     1      13.107  -2.295  -2.731  1.00  0.00     0.181 C 
HETATM   25  O3  LFX     1      12.712  -3.438  -2.867  1.00  0.00    -0.646 OA
BRANCH  24  26
HETATM   26  O4  LFX     1      12.212  -1.284  -2.742  1.00  0.00    -0.773 OA
HETATM   27  H20 LFX     1      12.622  -0.629  -2.137  1.00  0.00     0.167 HD
ENDBRANCH  24  26
ENDBRANCH   9  24
TORSDOF 3
ENDMDL
