MODEL 1
REMARK VINA RESULT:      -7.0      0.000      0.000
REMARK  3 active torsions:
REMARK  status: ('A' for Active; 'I' for Inactive)
REMARK    1  A    between atoms: C7_9  and  C18_24 
REMARK    2  A    between atoms: C12_15  and  N2_16 
REMARK    3  A    between atoms: C18_24  and  O4_26 
ROOT
HETATM    1  C1  LFX     1      -2.956 -51.034  -4.228  1.00  0.00     0.035 C 
HETATM    2  C2  LFX     1      -3.583 -49.690  -4.611  1.00  0.00     0.110 C 
HETATM    3  C3  LFX     1      -4.376 -49.776  -5.917  1.00  0.00     0.201 C 
HETATM    4  O1  LFX     1      -5.484 -50.671  -5.806  1.00  0.00    -0.344 OA
HETATM    5  C4  LFX     1      -6.309 -50.354  -4.740  1.00  0.00     0.126 A 
HETATM    6  C5  LFX     1      -5.817 -49.630  -3.629  1.00  0.00     0.085 A 
HETATM    7  N1  LFX     1      -4.467 -49.219  -3.532  1.00  0.00    -0.346 N 
HETATM    8  C6  LFX     1      -4.030 -48.542  -2.410  1.00  0.00     0.114 A 
HETATM    9  C7  LFX     1      -4.785 -48.174  -1.361  1.00  0.00     0.104 A 
HETATM   10  C8  LFX     1      -6.226 -48.541  -1.416  1.00  0.00     0.202 A 
HETATM   11  O2  LFX     1      -7.023 -48.229  -0.539  1.00  0.00    -0.286 OA
HETATM   12  C9  LFX     1      -6.707 -49.314  -2.592  1.00  0.00     0.048 A 
HETATM   13  C10 LFX     1      -8.040 -49.723  -2.646  1.00  0.00     0.062 A 
HETATM   14  C11 LFX     1      -8.493 -50.456  -3.738  1.00  0.00     0.146 A 
HETATM   15  C12 LFX     1      -7.656 -50.795  -4.818  1.00  0.00     0.105 A 
HETATM   16  F1  LFX     1      -9.774 -50.860  -3.711  1.00  0.00    -0.204 F 
ENDROOT
BRANCH  15  17
HETATM   17  N2  LFX     1      -8.088 -51.544  -5.935  1.00  0.00    -0.373 N 
HETATM   18  C13 LFX     1      -9.037 -50.926  -6.887  1.00  0.00     0.153 C 
HETATM   19  C14 LFX     1     -10.441 -51.567  -6.807  1.00  0.00     0.291 C 
HETATM   20  N3  LFX     1     -10.474 -53.031  -7.035  1.00  0.00     0.087 N 
HETATM   21  C15 LFX     1      -9.166 -53.652  -6.719  1.00  0.00     0.291 C 
HETATM   22  C17 LFX     1     -10.880 -53.360  -8.398  1.00  0.00     0.310 C 
HETATM   23  C16 LFX     1      -8.411 -52.946  -5.571  1.00  0.00     0.153 C 
ENDBRANCH  15  17
BRANCH   9  24
HETATM   24  C18 LFX     1      -4.199 -47.459  -0.211  1.00  0.00     0.181 C 
HETATM   25  O3  LFX     1      -3.627 -46.384  -0.219  1.00  0.00    -0.646 OA
BRANCH  24  26
HETATM   26  O4  LFX     1      -4.345 -48.116   0.959  1.00  0.00    -0.773 OA
HETATM   27  H20 LFX     1      -3.415 -48.275   1.234  1.00  0.00     0.167 HD
ENDBRANCH  24  26
ENDBRANCH   9  24
TORSDOF 3
ENDMDL
