MODEL 1
REMARK VINA RESULT:      -6.2      0.000      0.000
REMARK  3 active torsions:
REMARK  status: ('A' for Active; 'I' for Inactive)
REMARK    1  A    between atoms: C7_9  and  C18_24 
REMARK    2  A    between atoms: C12_15  and  N2_16 
REMARK    3  A    between atoms: C18_24  and  O4_26 
ROOT
HETATM    1  C1  LFX     1       4.564 -51.980  -2.124  1.00  0.00     0.035 C 
HETATM    2  C2  LFX     1       5.878 -51.555  -1.464  1.00  0.00     0.110 C 
HETATM    3  C3  LFX     1       6.096 -52.246  -0.116  1.00  0.00     0.201 C 
HETATM    4  O1  LFX     1       6.208 -53.663  -0.259  1.00  0.00    -0.344 OA
HETATM    5  C4  LFX     1       7.188 -54.022  -1.170  1.00  0.00     0.126 A 
HETATM    6  C5  LFX     1       7.594 -53.131  -2.192  1.00  0.00     0.085 A 
HETATM    7  N1  LFX     1       7.010 -51.853  -2.356  1.00  0.00    -0.346 N 
HETATM    8  C6  LFX     1       7.422 -51.034  -3.390  1.00  0.00     0.114 A 
HETATM    9  C7  LFX     1       8.389 -51.308  -4.283  1.00  0.00     0.104 A 
HETATM   10  C8  LFX     1       9.072 -52.622  -4.142  1.00  0.00     0.202 A 
HETATM   11  O2  LFX     1       9.994 -52.970  -4.871  1.00  0.00    -0.286 OA
HETATM   12  C9  LFX     1       8.611 -53.540  -3.067  1.00  0.00     0.048 A 
HETATM   13  C10 LFX     1       9.193 -54.803  -2.946  1.00  0.00     0.062 A 
HETATM   14  C11 LFX     1       8.757 -55.669  -1.948  1.00  0.00     0.146 A 
HETATM   15  C12 LFX     1       7.750 -55.317  -1.029  1.00  0.00     0.105 A 
HETATM   16  F1  LFX     1       9.323 -56.887  -1.911  1.00  0.00    -0.204 F 
ENDROOT
BRANCH  15  17
HETATM   17  N2  LFX     1       7.285 -56.180  -0.012  1.00  0.00    -0.373 N 
HETATM   18  C13 LFX     1       8.130 -56.399   1.182  1.00  0.00     0.153 C 
HETATM   19  C14 LFX     1       8.722 -57.827   1.222  1.00  0.00     0.291 C 
HETATM   20  N3  LFX     1       7.722 -58.919   1.180  1.00  0.00     0.087 N 
HETATM   21  C15 LFX     1       6.463 -58.469   0.541  1.00  0.00     0.291 C 
HETATM   22  C17 LFX     1       7.455 -59.463   2.508  1.00  0.00     0.310 C 
HETATM   23  C16 LFX     1       6.679 -57.416  -0.569  1.00  0.00     0.153 C 
ENDBRANCH  15  17
BRANCH   9  24
HETATM   24  C18 LFX     1       8.733 -50.352  -5.353  1.00  0.00     0.181 C 
HETATM   25  O3  LFX     1       7.983 -49.856  -6.174  1.00  0.00    -0.646 OA
BRANCH  24  26
HETATM   26  O4  LFX     1      10.042 -50.023  -5.376  1.00  0.00    -0.773 OA
HETATM   27  H20 LFX     1      10.342 -50.275  -4.475  1.00  0.00     0.167 HD
ENDBRANCH  24  26
ENDBRANCH   9  24
TORSDOF 3
ENDMDL
