MODEL 1
REMARK VINA RESULT:      -6.1      0.000      0.000
REMARK  3 active torsions:
REMARK  status: ('A' for Active; 'I' for Inactive)
REMARK    1  A    between atoms: C7_9  and  C18_24 
REMARK    2  A    between atoms: C12_15  and  N2_16 
REMARK    3  A    between atoms: C18_24  and  O4_26 
ROOT
HETATM    1  C1  LFX     1      14.195  -2.288 -13.164  1.00  0.00     0.035 C 
HETATM    2  C2  LFX     1      13.118  -2.852 -14.094  1.00  0.00     0.110 C 
HETATM    3  C3  LFX     1      12.053  -1.809 -14.442  1.00  0.00     0.201 C 
HETATM    4  O1  LFX     1      12.608  -0.706 -15.162  1.00  0.00    -0.344 OA
HETATM    5  C4  LFX     1      13.299  -1.113 -16.292  1.00  0.00     0.126 A 
HETATM    6  C5  LFX     1      13.840  -2.417 -16.385  1.00  0.00     0.085 A 
HETATM    7  N1  LFX     1      13.733  -3.356 -15.333  1.00  0.00    -0.346 N 
HETATM    8  C6  LFX     1      14.308  -4.606 -15.462  1.00  0.00     0.114 A 
HETATM    9  C7  LFX     1      14.958  -5.072 -16.542  1.00  0.00     0.104 A 
HETATM   10  C8  LFX     1      15.073  -4.146 -17.701  1.00  0.00     0.202 A 
HETATM   11  O2  LFX     1      15.610  -4.468 -18.755  1.00  0.00    -0.286 OA
HETATM   12  C9  LFX     1      14.505  -2.779 -17.565  1.00  0.00     0.048 A 
HETATM   13  C10 LFX     1      14.648  -1.869 -18.613  1.00  0.00     0.062 A 
HETATM   14  C11 LFX     1      14.128  -0.584 -18.486  1.00  0.00     0.146 A 
HETATM   15  C12 LFX     1      13.439  -0.160 -17.334  1.00  0.00     0.105 A 
HETATM   16  F1  LFX     1      14.337   0.260 -19.510  1.00  0.00    -0.204 F 
ENDROOT
BRANCH  15  17
HETATM   17  N2  LFX     1      12.907   1.140 -17.177  1.00  0.00    -0.373 N 
HETATM   18  C13 LFX     1      11.706   1.520 -17.952  1.00  0.00     0.153 C 
HETATM   19  C14 LFX     1      12.029   2.553 -19.056  1.00  0.00     0.291 C 
HETATM   20  N3  LFX     1      12.661   3.804 -18.575  1.00  0.00     0.087 N 
HETATM   21  C15 LFX     1      13.367   3.588 -17.290  1.00  0.00     0.291 C 
HETATM   22  C17 LFX     1      11.693   4.890 -18.451  1.00  0.00     0.310 C 
HETATM   23  C16 LFX     1      13.972   2.173 -17.150  1.00  0.00     0.153 C 
ENDBRANCH  15  17
BRANCH   9  24
HETATM   24  C18 LFX     1      15.540  -6.428 -16.557  1.00  0.00     0.181 C 
HETATM   25  O3  LFX     1      16.351  -6.896 -15.779  1.00  0.00    -0.646 OA
BRANCH  24  26
HETATM   26  O4  LFX     1      15.082  -7.195 -17.569  1.00  0.00    -0.773 OA
HETATM   27  H20 LFX     1      15.737  -7.927 -17.596  1.00  0.00     0.167 HD
ENDBRANCH  24  26
ENDBRANCH   9  24
TORSDOF 3
ENDMDL
