MODEL 1
REMARK VINA RESULT:    -5.456      0.000      0.000
REMARK INTER + INTRA:          -9.690
REMARK INTER:                  -8.008
REMARK INTRA:                  -1.682
REMARK UNBOUND:                -1.682
REMARK  8 active torsions:
REMARK  status: ('A' for Active; 'I' for Inactive)
REMARK    1  A    between atoms: P_1  and  O3'_9 
REMARK    2  A    between atoms: PA_2  and  O5'_5 
REMARK    3  A    between atoms: PA_2  and  O3A_23 
REMARK    4  A    between atoms: PB_3  and  O3A_23 
REMARK    5  A    between atoms: C5'_4  and  O5'_5 
REMARK    6  A    between atoms: C5'_4  and  C4'_6 
REMARK    7  A    between atoms: C3'_8  and  O3'_9 
REMARK    8  A    between atoms: C1'_12  and  N9_31 
ROOT
HETATM    1  C4' PAP A 125      40.570   2.799  43.936  1.00 30.66     0.178 C 
HETATM    2  O4' PAP A 125      41.092   4.122  43.779  1.00 30.64    -0.331 OA
HETATM    3  C3' PAP A 125      41.652   1.980  44.692  1.00 32.01     0.192 C 
HETATM    4  C2' PAP A 125      42.458   3.096  45.345  1.00 31.03     0.231 C 
HETATM    5  O2' PAP A 125      43.781   2.636  45.701  1.00 29.14    -0.216 OA
HETATM    6  C1' PAP A 125      42.466   4.036  44.123  1.00 29.59     0.241 C 
ENDROOT
BRANCH   1   7
HETATM    7  C5' PAP A 125      39.295   2.954  44.713  1.00 29.07     0.187 C 
BRANCH   7   8
HETATM    8  O5' PAP A 125      39.049   4.345  44.766  1.00 30.13    -0.268 OA
BRANCH   8   9
HETATM    9  PA  PAP A 125      38.567   5.056  46.149  1.00 31.22     0.419 P 
HETATM   10  O1A PAP A 125      37.432   4.242  46.677  1.00 32.37    -0.624 OA
HETATM   11  O2A PAP A 125      39.755   5.264  47.021  1.00 32.57    -0.624 OA
BRANCH   9  12
HETATM   12  O3A PAP A 125      37.819   6.520  45.644  1.00 29.92    -0.173 OA
BRANCH  12  13
HETATM   13  PB  PAP A 125      38.285   8.006  45.112  1.00 26.94     0.431 P 
HETATM   14  O1B PAP A 125      37.059   8.829  45.136  1.00 24.20    -0.616 OA
HETATM   15  O2B PAP A 125      39.336   8.417  46.103  1.00 26.86    -0.616 OA
HETATM   16  O3B PAP A 125      38.821   7.774  43.750  1.00 28.16    -0.616 OA
ENDBRANCH  12  13
ENDBRANCH   9  12
ENDBRANCH   8   9
ENDBRANCH   7   8
ENDBRANCH   1   7
BRANCH   3  17
HETATM   17  O3' PAP A 125      42.455   1.236  43.732  1.00 36.20    -0.261 OA
BRANCH  17  18
HETATM   18  P   PAP A 125      42.208  -0.436  43.492  1.00 39.68     0.423 P 
HETATM   19  O1  PAP A 125      42.348  -0.526  42.018  1.00 40.50    -0.617 OA
HETATM   20  O2  PAP A 125      43.317  -1.042  44.271  1.00 39.38    -0.617 OA
HETATM   21  O3  PAP A 125      40.860  -0.745  44.063  1.00 40.59    -0.617 OA
ENDBRANCH  17  18
ENDBRANCH   3  17
BRANCH   6  22
HETATM   22  N9  PAP A 125      42.872   5.440  44.365  1.00 29.22    -0.270 N 
HETATM   23  C4  PAP A 125      44.156   6.042  44.425  1.00 29.28     0.170 A 
HETATM   24  N3  PAP A 125      45.409   5.476  44.293  1.00 29.66    -0.205 NA
HETATM   25  C5  PAP A 125      43.913   7.389  44.668  1.00 29.93     0.155 A 
HETATM   26  C2  PAP A 125      46.375   6.412  44.448  1.00 28.29     0.202 A 
HETATM   27  N1  PAP A 125      46.296   7.730  44.689  1.00 27.66    -0.202 NA
HETATM   28  C6  PAP A 125      45.060   8.284  44.800  1.00 28.82     0.206 A 
HETATM   29  N6  PAP A 125      44.926   9.616  44.951  1.00 26.39    -0.125 N 
HETATM   30  N7  PAP A 125      42.503   7.617  44.760  1.00 30.19    -0.219 NA
HETATM   31  C8  PAP A 125      41.965   6.448  44.575  1.00 28.80     0.182 A 
ENDBRANCH   6  22
TORSDOF 8
ENDMDL
MODEL 2
REMARK VINA RESULT:    -5.174      3.723      6.957
REMARK INTER + INTRA:          -9.276
REMARK INTER:                  -7.762
REMARK INTRA:                  -1.513
REMARK UNBOUND:                -1.682
REMARK  8 active torsions:
REMARK  status: ('A' for Active; 'I' for Inactive)
REMARK    1  A    between atoms: P_1  and  O3'_9 
REMARK    2  A    between atoms: PA_2  and  O5'_5 
REMARK    3  A    between atoms: PA_2  and  O3A_23 
REMARK    4  A    between atoms: PB_3  and  O3A_23 
REMARK    5  A    between atoms: C5'_4  and  O5'_5 
REMARK    6  A    between atoms: C5'_4  and  C4'_6 
REMARK    7  A    between atoms: C3'_8  and  O3'_9 
REMARK    8  A    between atoms: C1'_12  and  N9_31 
ROOT
HETATM    1  C4' PAP A 125      41.844   5.890  44.800  1.00 30.66     0.178 C 
HETATM    2  O4' PAP A 125      42.118   4.597  44.251  1.00 30.64    -0.331 OA
HETATM    3  C3' PAP A 125      40.621   5.724  45.743  1.00 32.01     0.192 C 
HETATM    4  C2' PAP A 125      40.672   4.227  46.024  1.00 31.03     0.231 C 
HETATM    5  O2' PAP A 125      39.387   3.743  46.474  1.00 29.14    -0.216 OA
HETATM    6  C1' PAP A 125      40.996   3.795  44.580  1.00 29.59     0.241 C 
ENDROOT
BRANCH   1   7
HETATM    7  C5' PAP A 125      43.095   6.301  45.520  1.00 29.07     0.187 C 
BRANCH   7   8
HETATM    8  O5' PAP A 125      43.285   7.666  45.204  1.00 30.13    -0.268 OA
BRANCH   8   9
HETATM    9  PA  PAP A 125      44.272   8.112  43.988  1.00 31.22     0.419 P 
HETATM   10  O1A PAP A 125      45.173   9.170  44.532  1.00 32.37    -0.624 OA
HETATM   11  O2A PAP A 125      44.887   6.892  43.397  1.00 32.57    -0.624 OA
BRANCH   9  12
HETATM   12  O3A PAP A 125      43.253   8.965  42.897  1.00 29.92    -0.173 OA
BRANCH  12  13
HETATM   13  PB  PAP A 125      41.831   9.792  42.951  1.00 26.94     0.431 P 
HETATM   14  O1B PAP A 125      41.843  10.663  41.758  1.00 24.20    -0.616 OA
HETATM   15  O2B PAP A 125      40.795   8.705  42.922  1.00 26.86    -0.616 OA
HETATM   16  O3B PAP A 125      41.868  10.534  44.232  1.00 28.16    -0.616 OA
ENDBRANCH  12  13
ENDBRANCH   9  12
ENDBRANCH   8   9
ENDBRANCH   7   8
ENDBRANCH   1   7
BRANCH   3  17
HETATM   17  O3' PAP A 125      39.406   6.090  45.028  1.00 36.20    -0.261 OA
BRANCH  17  18
HETATM   18  P   PAP A 125      38.449   7.406  45.545  1.00 39.68     0.423 P 
HETATM   19  O1  PAP A 125      39.501   8.348  46.001  1.00 40.50    -0.617 OA
HETATM   20  O2  PAP A 125      37.743   7.801  44.301  1.00 39.38    -0.617 OA
HETATM   21  O3  PAP A 125      37.526   6.866  46.590  1.00 40.59    -0.617 OA
ENDBRANCH  17  18
ENDBRANCH   3  17
BRANCH   6  22
HETATM   22  N9  PAP A 125      41.470   2.405  44.391  1.00 29.22    -0.270 N 
HETATM   23  C4  PAP A 125      40.924   1.325  43.647  1.00 29.28     0.170 A 
HETATM   24  N3  PAP A 125      39.767   1.261  42.896  1.00 29.66    -0.205 NA
HETATM   25  C5  PAP A 125      41.812   0.272  43.832  1.00 29.93     0.155 A 
HETATM   26  C2  PAP A 125      39.605   0.023  42.372  1.00 28.29     0.202 A 
HETATM   27  N1  PAP A 125      40.362  -1.081  42.466  1.00 27.66    -0.202 NA
HETATM   28  C6  PAP A 125      41.509  -1.005  43.192  1.00 28.82     0.206 A 
HETATM   29  N6  PAP A 125      42.349  -2.057  43.242  1.00 26.39    -0.125 N 
HETATM   30  N7  PAP A 125      42.888   0.691  44.678  1.00 30.19    -0.219 NA
HETATM   31  C8  PAP A 125      42.625   1.932  44.961  1.00 28.80     0.182 A 
ENDBRANCH   6  22
TORSDOF 8
ENDMDL
MODEL 3
REMARK VINA RESULT:    -5.051      3.740      7.597
REMARK INTER + INTRA:          -9.096
REMARK INTER:                  -7.727
REMARK INTRA:                  -1.369
REMARK UNBOUND:                -1.682
REMARK  8 active torsions:
REMARK  status: ('A' for Active; 'I' for Inactive)
REMARK    1  A    between atoms: P_1  and  O3'_9 
REMARK    2  A    between atoms: PA_2  and  O5'_5 
REMARK    3  A    between atoms: PA_2  and  O3A_23 
REMARK    4  A    between atoms: PB_3  and  O3A_23 
REMARK    5  A    between atoms: C5'_4  and  O5'_5 
REMARK    6  A    between atoms: C5'_4  and  C4'_6 
REMARK    7  A    between atoms: C3'_8  and  O3'_9 
REMARK    8  A    between atoms: C1'_12  and  N9_31 
ROOT
HETATM    1  C4' PAP A 125      41.953   6.367  44.400  1.00 30.66     0.178 C 
HETATM    2  O4' PAP A 125      42.264   4.996  44.129  1.00 30.64    -0.331 OA
HETATM    3  C3' PAP A 125      40.440   6.421  44.744  1.00 32.01     0.192 C 
HETATM    4  C2' PAP A 125      40.181   4.973  45.143  1.00 31.03     0.231 C 
HETATM    5  O2' PAP A 125      38.775   4.655  45.044  1.00 29.14    -0.216 OA
HETATM    6  C1' PAP A 125      41.015   4.335  44.015  1.00 29.59     0.241 C 
ENDROOT
BRANCH   1   7
HETATM    7  C5' PAP A 125      42.836   6.766  45.547  1.00 29.07     0.187 C 
BRANCH   7   8
HETATM    8  O5' PAP A 125      43.850   7.574  44.982  1.00 30.13    -0.268 OA
BRANCH   8   9
HETATM    9  PA  PAP A 125      45.224   6.912  44.412  1.00 31.22     0.419 P 
HETATM   10  O1A PAP A 125      44.988   6.610  42.969  1.00 32.37    -0.624 OA
HETATM   11  O2A PAP A 125      46.367   7.793  44.774  1.00 32.57    -0.624 OA
BRANCH   9  12
HETATM   12  O3A PAP A 125      45.292   5.360  45.148  1.00 29.92    -0.173 OA
BRANCH  12  13
HETATM   13  PB  PAP A 125      45.947   4.677  46.495  1.00 26.94     0.431 P 
HETATM   14  O1B PAP A 125      47.350   4.383  46.139  1.00 24.20    -0.616 OA
HETATM   15  O2B PAP A 125      45.775   5.740  47.543  1.00 26.86    -0.616 OA
HETATM   16  O3B PAP A 125      45.129   3.468  46.747  1.00 28.16    -0.616 OA
ENDBRANCH  12  13
ENDBRANCH   9  12
ENDBRANCH   8   9
ENDBRANCH   7   8
ENDBRANCH   1   7
BRANCH   3  17
HETATM   17  O3' PAP A 125      39.685   6.787  43.554  1.00 36.20    -0.261 OA
BRANCH  17  18
HETATM   18  P   PAP A 125      39.259   8.413  43.253  1.00 39.68     0.423 P 
HETATM   19  O1  PAP A 125      39.976   8.653  41.977  1.00 40.50    -0.617 OA
HETATM   20  O2  PAP A 125      37.780   8.344  43.144  1.00 39.38    -0.617 OA
HETATM   21  O3  PAP A 125      39.718   9.192  44.444  1.00 40.59    -0.617 OA
ENDBRANCH  17  18
ENDBRANCH   3  17
BRANCH   6  22
HETATM   22  N9  PAP A 125      41.345   2.899  44.161  1.00 29.22    -0.270 N 
HETATM   23  C4  PAP A 125      40.549   1.736  43.988  1.00 29.28     0.170 A 
HETATM   24  N3  PAP A 125      39.216   1.615  43.651  1.00 29.66    -0.205 NA
HETATM   25  C5  PAP A 125      41.403   0.670  44.250  1.00 29.93     0.155 A 
HETATM   26  C2  PAP A 125      38.846   0.312  43.622  1.00 28.29     0.202 A 
HETATM   27  N1  PAP A 125      39.546  -0.809  43.853  1.00 27.66    -0.202 NA
HETATM   28  C6  PAP A 125      40.862  -0.684  44.167  1.00 28.82     0.206 A 
HETATM   29  N6  PAP A 125      41.629  -1.781  44.319  1.00 26.39    -0.125 N 
HETATM   30  N7  PAP A 125      42.705   1.165  44.581  1.00 30.19    -0.219 NA
HETATM   31  C8  PAP A 125      42.598   2.459  44.510  1.00 28.80     0.182 A 
ENDBRANCH   6  22
TORSDOF 8
ENDMDL
MODEL 4
REMARK VINA RESULT:    -5.037      5.431      8.307
REMARK INTER + INTRA:          -9.076
REMARK INTER:                  -8.111
REMARK INTRA:                  -0.965
REMARK UNBOUND:                -1.682
REMARK  8 active torsions:
REMARK  status: ('A' for Active; 'I' for Inactive)
REMARK    1  A    between atoms: P_1  and  O3'_9 
REMARK    2  A    between atoms: PA_2  and  O5'_5 
REMARK    3  A    between atoms: PA_2  and  O3A_23 
REMARK    4  A    between atoms: PB_3  and  O3A_23 
REMARK    5  A    between atoms: C5'_4  and  O5'_5 
REMARK    6  A    between atoms: C5'_4  and  C4'_6 
REMARK    7  A    between atoms: C3'_8  and  O3'_9 
REMARK    8  A    between atoms: C1'_12  and  N9_31 
ROOT
HETATM    1  C4' PAP A 125      39.991   0.294  45.483  1.00 30.66     0.178 C 
HETATM    2  O4' PAP A 125      40.812  -0.604  44.729  1.00 30.64    -0.331 OA
HETATM    3  C3' PAP A 125      39.414   1.324  44.474  1.00 32.01     0.192 C 
HETATM    4  C2' PAP A 125      39.564   0.562  43.163  1.00 31.03     0.231 C 
HETATM    5  O2' PAP A 125      39.550   1.467  42.036  1.00 29.14    -0.216 OA
HETATM    6  C1' PAP A 125      40.969  -0.002  43.454  1.00 29.59     0.241 C 
ENDROOT
BRANCH   1   7
HETATM    7  C5' PAP A 125      38.936  -0.561  46.124  1.00 29.07     0.187 C 
BRANCH   7   8
HETATM    8  O5' PAP A 125      38.034   0.343  46.733  1.00 30.13    -0.268 OA
BRANCH   8   9
HETATM    9  PA  PAP A 125      36.425   0.139  46.590  1.00 31.22     0.419 P 
HETATM   10  O1A PAP A 125      36.011  -0.788  47.684  1.00 32.37    -0.624 OA
HETATM   11  O2A PAP A 125      35.777   1.476  46.510  1.00 32.57    -0.624 OA
BRANCH   9  12
HETATM   12  O3A PAP A 125      36.235  -0.803  45.164  1.00 29.92    -0.173 OA
BRANCH  12  13
HETATM   13  PB  PAP A 125      35.725  -2.314  44.760  1.00 26.94     0.431 P 
HETATM   14  O1B PAP A 125      34.333  -2.398  45.248  1.00 24.20    -0.616 OA
HETATM   15  O2B PAP A 125      35.867  -2.342  43.265  1.00 26.86    -0.616 OA
HETATM   16  O3B PAP A 125      36.657  -3.232  45.456  1.00 28.16    -0.616 OA
ENDBRANCH  12  13
ENDBRANCH   9  12
ENDBRANCH   8   9
ENDBRANCH   7   8
ENDBRANCH   1   7
BRANCH   3  17
HETATM   17  O3' PAP A 125      40.236   2.526  44.487  1.00 36.20    -0.261 OA
BRANCH  17  18
HETATM   18  P   PAP A 125      39.607   4.010  45.050  1.00 39.68     0.423 P 
HETATM   19  O1  PAP A 125      40.369   4.170  46.313  1.00 40.50    -0.617 OA
HETATM   20  O2  PAP A 125      39.979   4.952  43.964  1.00 39.38    -0.617 OA
HETATM   21  O3  PAP A 125      38.129   3.819  45.171  1.00 40.59    -0.617 OA
ENDBRANCH  17  18
ENDBRANCH   3  17
BRANCH   6  22
HETATM   22  N9  PAP A 125      41.438  -1.103  42.583  1.00 29.22    -0.270 N 
HETATM   23  C4  PAP A 125      42.185  -2.274  42.881  1.00 29.28     0.170 A 
HETATM   24  N3  PAP A 125      42.709  -2.711  44.081  1.00 29.66    -0.205 NA
HETATM   25  C5  PAP A 125      42.314  -2.939  41.666  1.00 29.93     0.155 A 
HETATM   26  C2  PAP A 125      43.382  -3.875  43.914  1.00 28.29     0.202 A 
HETATM   27  N1  PAP A 125      43.594  -4.621  42.819  1.00 27.66    -0.202 NA
HETATM   28  C6  PAP A 125      43.060  -4.195  41.644  1.00 28.82     0.206 A 
HETATM   29  N6  PAP A 125      43.167  -4.954  40.537  1.00 26.39    -0.125 N 
HETATM   30  N7  PAP A 125      41.661  -2.192  40.634  1.00 30.19    -0.219 NA
HETATM   31  C8  PAP A 125      41.179  -1.145  41.236  1.00 28.80     0.182 A 
ENDBRANCH   6  22
TORSDOF 8
ENDMDL
MODEL 5
REMARK VINA RESULT:    -5.034      3.782      6.780
REMARK INTER + INTRA:          -9.071
REMARK INTER:                  -7.891
REMARK INTRA:                  -1.179
REMARK UNBOUND:                -1.682
REMARK  8 active torsions:
REMARK  status: ('A' for Active; 'I' for Inactive)
REMARK    1  A    between atoms: P_1  and  O3'_9 
REMARK    2  A    between atoms: PA_2  and  O5'_5 
REMARK    3  A    between atoms: PA_2  and  O3A_23 
REMARK    4  A    between atoms: PB_3  and  O3A_23 
REMARK    5  A    between atoms: C5'_4  and  O5'_5 
REMARK    6  A    between atoms: C5'_4  and  C4'_6 
REMARK    7  A    between atoms: C3'_8  and  O3'_9 
REMARK    8  A    between atoms: C1'_12  and  N9_31 
ROOT
HETATM    1  C4' PAP A 125      41.719   4.795  44.138  1.00 30.66     0.178 C 
HETATM    2  O4' PAP A 125      40.571   5.559  43.755  1.00 30.64    -0.331 OA
HETATM    3  C3' PAP A 125      42.570   5.703  45.067  1.00 32.01     0.192 C 
HETATM    4  C2' PAP A 125      41.524   6.710  45.527  1.00 31.03     0.231 C 
HETATM    5  O2' PAP A 125      42.149   7.922  46.004  1.00 29.14    -0.216 OA
HETATM    6  C1' PAP A 125      40.848   6.892  44.154  1.00 29.59     0.241 C 
ENDROOT
BRANCH   1   7
HETATM    7  C5' PAP A 125      41.183   3.576  44.832  1.00 29.07     0.187 C 
BRANCH   7   8
HETATM    8  O5' PAP A 125      40.092   3.139  44.045  1.00 30.13    -0.268 OA
BRANCH   8   9
HETATM    9  PA  PAP A 125      39.792   1.552  43.841  1.00 31.22     0.419 P 
HETATM   10  O1A PAP A 125      38.936   1.126  44.987  1.00 32.37    -0.624 OA
HETATM   11  O2A PAP A 125      39.287   1.333  42.458  1.00 32.57    -0.624 OA
BRANCH   9  12
HETATM   12  O3A PAP A 125      41.300   0.785  44.152  1.00 29.92    -0.173 OA
BRANCH  12  13
HETATM   13  PB  PAP A 125      42.080  -0.594  43.708  1.00 26.94     0.431 P 
HETATM   14  O1B PAP A 125      41.150  -1.692  44.042  1.00 24.20    -0.616 OA
HETATM   15  O2B PAP A 125      42.319  -0.402  42.237  1.00 26.86    -0.616 OA
HETATM   16  O3B PAP A 125      43.326  -0.603  44.509  1.00 28.16    -0.616 OA
ENDBRANCH  12  13
ENDBRANCH   9  12
ENDBRANCH   8   9
ENDBRANCH   7   8
ENDBRANCH   1   7
BRANCH   3  17
HETATM   17  O3' PAP A 125      43.619   6.345  44.287  1.00 36.20    -0.261 OA
BRANCH  17  18
HETATM   18  P   PAP A 125      45.230   6.381  44.849  1.00 39.68     0.423 P 
HETATM   19  O1  PAP A 125      45.829   5.294  44.036  1.00 40.50    -0.617 OA
HETATM   20  O2  PAP A 125      45.668   7.754  44.489  1.00 39.38    -0.617 OA
HETATM   21  O3  PAP A 125      45.162   6.162  46.327  1.00 40.59    -0.617 OA
ENDBRANCH  17  18
ENDBRANCH   3  17
BRANCH   6  22
HETATM   22  N9  PAP A 125      39.526   7.560  44.144  1.00 29.22    -0.270 N 
HETATM   23  C4  PAP A 125      38.949   8.474  43.223  1.00 29.28     0.170 A 
HETATM   24  N3  PAP A 125      39.475   9.022  42.070  1.00 29.66    -0.205 NA
HETATM   25  C5  PAP A 125      37.683   8.747  43.728  1.00 29.93     0.155 A 
HETATM   26  C2  PAP A 125      38.592   9.877  41.501  1.00 28.29     0.202 A 
HETATM   27  N1  PAP A 125      37.355  10.242  41.870  1.00 27.66    -0.202 NA
HETATM   28  C6  PAP A 125      36.836   9.685  42.996  1.00 28.82     0.206 A 
HETATM   29  N6  PAP A 125      35.566   9.947  43.358  1.00 26.39    -0.125 N 
HETATM   30  N7  PAP A 125      37.481   8.017  44.943  1.00 30.19    -0.219 NA
HETATM   31  C8  PAP A 125      38.585   7.354  45.121  1.00 28.80     0.182 A 
ENDBRANCH   6  22
TORSDOF 8
ENDMDL
MODEL 6
REMARK VINA RESULT:    -5.033      3.618      6.066
REMARK INTER + INTRA:          -9.069
REMARK INTER:                  -7.782
REMARK INTRA:                  -1.287
REMARK UNBOUND:                -1.682
REMARK  8 active torsions:
REMARK  status: ('A' for Active; 'I' for Inactive)
REMARK    1  A    between atoms: P_1  and  O3'_9 
REMARK    2  A    between atoms: PA_2  and  O5'_5 
REMARK    3  A    between atoms: PA_2  and  O3A_23 
REMARK    4  A    between atoms: PB_3  and  O3A_23 
REMARK    5  A    between atoms: C5'_4  and  O5'_5 
REMARK    6  A    between atoms: C5'_4  and  C4'_6 
REMARK    7  A    between atoms: C3'_8  and  O3'_9 
REMARK    8  A    between atoms: C1'_12  and  N9_31 
ROOT
HETATM    1  C4' PAP A 125      41.753   6.355  45.680  1.00 30.66     0.178 C 
HETATM    2  O4' PAP A 125      40.705   5.389  45.811  1.00 30.64    -0.331 OA
HETATM    3  C3' PAP A 125      42.879   5.681  44.849  1.00 32.01     0.192 C 
HETATM    4  C2' PAP A 125      42.101   4.572  44.151  1.00 31.03     0.231 C 
HETATM    5  O2' PAP A 125      42.988   3.522  43.706  1.00 29.14    -0.216 OA
HETATM    6  C1' PAP A 125      41.261   4.158  45.376  1.00 29.59     0.241 C 
ENDROOT
BRANCH   1   7
HETATM    7  C5' PAP A 125      41.135   7.536  44.991  1.00 29.07     0.187 C 
BRANCH   7   8
HETATM    8  O5' PAP A 125      39.749   7.259  44.931  1.00 30.13    -0.268 OA
BRANCH   8   9
HETATM    9  PA  PAP A 125      38.661   8.464  44.806  1.00 31.22     0.419 P 
HETATM   10  O1A PAP A 125      37.376   7.839  44.376  1.00 32.37    -0.624 OA
HETATM   11  O2A PAP A 125      38.678   9.257  46.065  1.00 32.57    -0.624 OA
BRANCH   9  12
HETATM   12  O3A PAP A 125      39.163   9.356  43.424  1.00 29.92    -0.173 OA
BRANCH  12  13
HETATM   13  PB  PAP A 125      39.505   9.062  41.841  1.00 26.94     0.431 P 
HETATM   14  O1B PAP A 125      38.611   9.957  41.078  1.00 24.20    -0.616 OA
HETATM   15  O2B PAP A 125      40.966   9.395  41.733  1.00 26.86    -0.616 OA
HETATM   16  O3B PAP A 125      39.215   7.622  41.648  1.00 28.16    -0.616 OA
ENDBRANCH  12  13
ENDBRANCH   9  12
ENDBRANCH   8   9
ENDBRANCH   7   8
ENDBRANCH   1   7
BRANCH   3  17
HETATM   17  O3' PAP A 125      43.886   5.138  45.750  1.00 36.20    -0.261 OA
BRANCH  17  18
HETATM   18  P   PAP A 125      45.535   5.538  45.561  1.00 39.68     0.423 P 
HETATM   19  O1  PAP A 125      45.587   6.836  46.278  1.00 40.50    -0.617 OA
HETATM   20  O2  PAP A 125      46.221   4.412  46.244  1.00 39.38    -0.617 OA
HETATM   21  O3  PAP A 125      45.792   5.567  44.089  1.00 40.59    -0.617 OA
ENDBRANCH  17  18
ENDBRANCH   3  17
BRANCH   6  22
HETATM   22  N9  PAP A 125      40.085   3.296  45.117  1.00 29.22    -0.270 N 
HETATM   23  C4  PAP A 125      39.984   2.008  44.528  1.00 29.28     0.170 A 
HETATM   24  N3  PAP A 125      40.967   1.193  44.003  1.00 29.66    -0.205 NA
HETATM   25  C5  PAP A 125      38.629   1.699  44.563  1.00 29.93     0.155 A 
HETATM   26  C2  PAP A 125      40.431   0.050  43.513  1.00 28.29     0.202 A 
HETATM   27  N1  PAP A 125      39.160  -0.380  43.470  1.00 27.66    -0.202 NA
HETATM   28  C6  PAP A 125      38.199   0.419  44.004  1.00 28.82     0.206 A 
HETATM   29  N6  PAP A 125      36.923  -0.007  44.069  1.00 26.39    -0.125 N 
HETATM   30  N7  PAP A 125      37.903   2.778  45.161  1.00 30.19    -0.219 NA
HETATM   31  C8  PAP A 125      38.807   3.664  45.456  1.00 28.80     0.182 A 
ENDBRANCH   6  22
TORSDOF 8
ENDMDL
MODEL 7
REMARK VINA RESULT:    -5.006      5.010      7.774
REMARK INTER + INTRA:          -9.029
REMARK INTER:                  -7.537
REMARK INTRA:                  -1.492
REMARK UNBOUND:                -1.682
REMARK  8 active torsions:
REMARK  status: ('A' for Active; 'I' for Inactive)
REMARK    1  A    between atoms: P_1  and  O3'_9 
REMARK    2  A    between atoms: PA_2  and  O5'_5 
REMARK    3  A    between atoms: PA_2  and  O3A_23 
REMARK    4  A    between atoms: PB_3  and  O3A_23 
REMARK    5  A    between atoms: C5'_4  and  O5'_5 
REMARK    6  A    between atoms: C5'_4  and  C4'_6 
REMARK    7  A    between atoms: C3'_8  and  O3'_9 
REMARK    8  A    between atoms: C1'_12  and  N9_31 
ROOT
HETATM    1  C4' PAP A 125      37.896   8.966  42.395  1.00 30.66     0.178 C 
HETATM    2  O4' PAP A 125      38.935   8.011  42.635  1.00 30.64    -0.331 OA
HETATM    3  C3' PAP A 125      37.659   9.715  43.735  1.00 32.01     0.192 C 
HETATM    4  C2' PAP A 125      38.976   9.448  44.454  1.00 31.03     0.231 C 
HETATM    5  O2' PAP A 125      38.829   9.620  45.881  1.00 29.14    -0.216 OA
HETATM    6  C1' PAP A 125      39.096   7.967  44.044  1.00 29.59     0.241 C 
ENDROOT
BRANCH   1   7
HETATM    7  C5' PAP A 125      38.408   9.859  41.302  1.00 29.07     0.187 C 
BRANCH   7   8
HETATM    8  O5' PAP A 125      37.824  11.125  41.540  1.00 30.13    -0.268 OA
BRANCH   8   9
HETATM    9  PA  PAP A 125      38.619  12.495  41.163  1.00 31.22     0.419 P 
HETATM   10  O1A PAP A 125      38.251  12.831  39.756  1.00 32.37    -0.624 OA
HETATM   11  O2A PAP A 125      38.362  13.506  42.224  1.00 32.57    -0.624 OA
BRANCH   9  12
HETATM   12  O3A PAP A 125      40.268  12.020  41.051  1.00 29.92    -0.173 OA
BRANCH  12  13
HETATM   13  PB  PAP A 125      41.538  11.775  42.069  1.00 26.94     0.431 P 
HETATM   14  O1B PAP A 125      42.583  12.717  41.620  1.00 24.20    -0.616 OA
HETATM   15  O2B PAP A 125      40.962  12.077  43.423  1.00 26.86    -0.616 OA
HETATM   16  O3B PAP A 125      41.901  10.350  41.890  1.00 28.16    -0.616 OA
ENDBRANCH  12  13
ENDBRANCH   9  12
ENDBRANCH   8   9
ENDBRANCH   7   8
ENDBRANCH   1   7
BRANCH   3  17
HETATM   17  O3' PAP A 125      36.538   9.105  44.438  1.00 36.20    -0.261 OA
BRANCH  17  18
HETATM   18  P   PAP A 125      35.148  10.017  44.824  1.00 39.68     0.423 P 
HETATM   19  O1  PAP A 125      35.002  10.832  43.591  1.00 40.50    -0.617 OA
HETATM   20  O2  PAP A 125      34.115   8.968  45.013  1.00 39.38    -0.617 OA
HETATM   21  O3  PAP A 125      35.467  10.753  46.086  1.00 40.59    -0.617 OA
ENDBRANCH  17  18
ENDBRANCH   3  17
BRANCH   6  22
HETATM   22  N9  PAP A 125      40.416   7.325  44.242  1.00 29.22    -0.270 N 
HETATM   23  C4  PAP A 125      40.810   5.962  44.176  1.00 29.28     0.170 A 
HETATM   24  N3  PAP A 125      40.058   4.832  43.925  1.00 29.66    -0.205 NA
HETATM   25  C5  PAP A 125      42.175   5.967  44.439  1.00 29.93     0.155 A 
HETATM   26  C2  PAP A 125      40.829   3.721  43.983  1.00 28.29     0.202 A 
HETATM   27  N1  PAP A 125      42.140   3.569  44.228  1.00 27.66    -0.202 NA
HETATM   28  C6  PAP A 125      42.878   4.687  44.457  1.00 28.82     0.206 A 
HETATM   29  N6  PAP A 125      44.213   4.596  44.617  1.00 26.39    -0.125 N 
HETATM   30  N7  PAP A 125      42.618   7.309  44.667  1.00 30.19    -0.219 NA
HETATM   31  C8  PAP A 125      41.550   8.039  44.537  1.00 28.80     0.182 A 
ENDBRANCH   6  22
TORSDOF 8
ENDMDL
MODEL 8
REMARK VINA RESULT:    -4.982      4.967      7.508
REMARK INTER + INTRA:          -8.994
REMARK INTER:                  -7.538
REMARK INTRA:                  -1.456
REMARK UNBOUND:                -1.682
REMARK  8 active torsions:
REMARK  status: ('A' for Active; 'I' for Inactive)
REMARK    1  A    between atoms: P_1  and  O3'_9 
REMARK    2  A    between atoms: PA_2  and  O5'_5 
REMARK    3  A    between atoms: PA_2  and  O3A_23 
REMARK    4  A    between atoms: PB_3  and  O3A_23 
REMARK    5  A    between atoms: C5'_4  and  O5'_5 
REMARK    6  A    between atoms: C5'_4  and  C4'_6 
REMARK    7  A    between atoms: C3'_8  and  O3'_9 
REMARK    8  A    between atoms: C1'_12  and  N9_31 
ROOT
HETATM    1  C4' PAP A 125      40.303  10.802  43.949  1.00 30.66     0.178 C 
HETATM    2  O4' PAP A 125      40.255   9.475  44.485  1.00 30.64    -0.331 OA
HETATM    3  C3' PAP A 125      41.498  10.840  42.958  1.00 32.01     0.192 C 
HETATM    4  C2' PAP A 125      41.669   9.357  42.653  1.00 31.03     0.231 C 
HETATM    5  O2' PAP A 125      42.995   9.085  42.146  1.00 29.14    -0.216 OA
HETATM    6  C1' PAP A 125      41.475   8.862  44.100  1.00 29.59     0.241 C 
ENDROOT
BRANCH   1   7
HETATM    7  C5' PAP A 125      38.975  11.020  43.284  1.00 29.07     0.187 C 
BRANCH   7   8
HETATM    8  O5' PAP A 125      38.168   9.928  43.678  1.00 30.13    -0.268 OA
BRANCH   8   9
HETATM    9  PA  PAP A 125      37.387   9.024  42.572  1.00 31.22     0.419 P 
HETATM   10  O1A PAP A 125      38.425   8.218  41.865  1.00 32.37    -0.624 OA
HETATM   11  O2A PAP A 125      36.267   8.307  43.241  1.00 32.57    -0.624 OA
BRANCH   9  12
HETATM   12  O3A PAP A 125      36.867  10.153  41.383  1.00 29.92    -0.173 OA
BRANCH  12  13
HETATM   13  PB  PAP A 125      35.576  11.139  41.120  1.00 26.94     0.431 P 
HETATM   14  O1B PAP A 125      34.829  11.149  42.395  1.00 24.20    -0.616 OA
HETATM   15  O2B PAP A 125      36.208  12.451  40.754  1.00 26.86    -0.616 OA
HETATM   16  O3B PAP A 125      34.836  10.510  40.000  1.00 28.16    -0.616 OA
ENDBRANCH  12  13
ENDBRANCH   9  12
ENDBRANCH   8   9
ENDBRANCH   7   8
ENDBRANCH   1   7
BRANCH   3  17
HETATM   17  O3' PAP A 125      42.669  11.382  43.633  1.00 36.20    -0.261 OA
BRANCH  17  18
HETATM   18  P   PAP A 125      42.988  13.059  43.619  1.00 39.68     0.423 P 
HETATM   19  O1  PAP A 125      44.457  13.058  43.408  1.00 40.50    -0.617 OA
HETATM   20  O2  PAP A 125      42.184  13.532  42.464  1.00 39.38    -0.617 OA
HETATM   21  O3  PAP A 125      42.493  13.589  44.927  1.00 40.59    -0.617 OA
ENDBRANCH  17  18
ENDBRANCH   3  17
BRANCH   6  22
HETATM   22  N9  PAP A 125      41.231   7.413  44.282  1.00 29.22    -0.270 N 
HETATM   23  C4  PAP A 125      42.130   6.316  44.347  1.00 29.28     0.170 A 
HETATM   24  N3  PAP A 125      43.506   6.289  44.235  1.00 29.66    -0.205 NA
HETATM   25  C5  PAP A 125      41.325   5.199  44.542  1.00 29.93     0.155 A 
HETATM   26  C2  PAP A 125      43.969   5.020  44.328  1.00 28.29     0.202 A 
HETATM   27  N1  PAP A 125      43.323   3.857  44.508  1.00 27.66    -0.202 NA
HETATM   28  C6  PAP A 125      41.971   3.892  44.635  1.00 28.82     0.206 A 
HETATM   29  N6  PAP A 125      41.286   2.765  44.908  1.00 26.39    -0.125 N 
HETATM   30  N7  PAP A 125      39.951   5.597  44.594  1.00 30.19    -0.219 NA
HETATM   31  C8  PAP A 125      39.972   6.888  44.437  1.00 28.80     0.182 A 
ENDBRANCH   6  22
TORSDOF 8
ENDMDL
MODEL 9
REMARK VINA RESULT:    -4.880      3.793      7.454
REMARK INTER + INTRA:          -8.844
REMARK INTER:                  -7.360
REMARK INTRA:                  -1.484
REMARK UNBOUND:                -1.682
REMARK  8 active torsions:
REMARK  status: ('A' for Active; 'I' for Inactive)
REMARK    1  A    between atoms: P_1  and  O3'_9 
REMARK    2  A    between atoms: PA_2  and  O5'_5 
REMARK    3  A    between atoms: PA_2  and  O3A_23 
REMARK    4  A    between atoms: PB_3  and  O3A_23 
REMARK    5  A    between atoms: C5'_4  and  O5'_5 
REMARK    6  A    between atoms: C5'_4  and  C4'_6 
REMARK    7  A    between atoms: C3'_8  and  O3'_9 
REMARK    8  A    between atoms: C1'_12  and  N9_31 
ROOT
HETATM    1  C4' PAP A 125      42.058   6.344  44.470  1.00 30.66     0.178 C 
HETATM    2  O4' PAP A 125      42.354   4.965  44.228  1.00 30.64    -0.331 OA
HETATM    3  C3' PAP A 125      40.531   6.432  44.743  1.00 32.01     0.192 C 
HETATM    4  C2' PAP A 125      40.225   4.993  45.144  1.00 31.03     0.231 C 
HETATM    5  O2' PAP A 125      38.820   4.701  44.982  1.00 29.14    -0.216 OA
HETATM    6  C1' PAP A 125      41.098   4.327  44.062  1.00 29.59     0.241 C 
ENDROOT
BRANCH   1   7
HETATM    7  C5' PAP A 125      42.894   6.739  45.653  1.00 29.07     0.187 C 
BRANCH   7   8
HETATM    8  O5' PAP A 125      43.490   5.541  46.113  1.00 30.13    -0.268 OA
BRANCH   8   9
HETATM    9  PA  PAP A 125      44.824   5.578  47.046  1.00 31.22     0.419 P 
HETATM   10  O1A PAP A 125      44.947   6.972  47.565  1.00 32.37    -0.624 OA
HETATM   11  O2A PAP A 125      44.755   4.460  48.026  1.00 32.57    -0.624 OA
BRANCH   9  12
HETATM   12  O3A PAP A 125      46.130   5.439  45.936  1.00 29.92    -0.173 OA
BRANCH  12  13
HETATM   13  PB  PAP A 125      46.562   6.068  44.478  1.00 26.94     0.431 P 
HETATM   14  O1B PAP A 125      45.527   5.604  43.532  1.00 24.20    -0.616 OA
HETATM   15  O2B PAP A 125      46.566   7.550  44.725  1.00 26.86    -0.616 OA
HETATM   16  O3B PAP A 125      47.909   5.514  44.207  1.00 28.16    -0.616 OA
ENDBRANCH  12  13
ENDBRANCH   9  12
ENDBRANCH   8   9
ENDBRANCH   7   8
ENDBRANCH   1   7
BRANCH   3  17
HETATM   17  O3' PAP A 125      39.841   6.799  43.515  1.00 36.20    -0.261 OA
BRANCH  17  18
HETATM   18  P   PAP A 125      39.320   8.403  43.250  1.00 39.68     0.423 P 
HETATM   19  O1  PAP A 125      39.219   8.893  44.647  1.00 40.50    -0.617 OA
HETATM   20  O2  PAP A 125      40.436   8.979  42.458  1.00 39.38    -0.617 OA
HETATM   21  O3  PAP A 125      38.046   8.306  42.473  1.00 40.59    -0.617 OA
ENDBRANCH  17  18
ENDBRANCH   3  17
BRANCH   6  22
HETATM   22  N9  PAP A 125      41.394   2.886  44.238  1.00 29.22    -0.270 N 
HETATM   23  C4  PAP A 125      40.584   1.737  44.040  1.00 29.28     0.170 A 
HETATM   24  N3  PAP A 125      39.265   1.638  43.641  1.00 29.66    -0.205 NA
HETATM   25  C5  PAP A 125      41.403   0.658  44.352  1.00 29.93     0.155 A 
HETATM   26  C2  PAP A 125      38.871   0.343  43.607  1.00 28.29     0.202 A 
HETATM   27  N1  PAP A 125      39.537  -0.789  43.883  1.00 27.66    -0.202 NA
HETATM   28  C6  PAP A 125      40.840  -0.686  44.257  1.00 28.82     0.206 A 
HETATM   29  N6  PAP A 125      41.577  -1.796  44.456  1.00 26.39    -0.125 N 
HETATM   30  N7  PAP A 125      42.698   1.131  44.739  1.00 30.19    -0.219 NA
HETATM   31  C8  PAP A 125      42.619   2.426  44.650  1.00 28.80     0.182 A 
ENDBRANCH   6  22
TORSDOF 8
ENDMDL
