MODEL 1
REMARK VINA RESULT:    -6.793      0.000      0.000
REMARK INTER + INTRA:         -11.549
REMARK INTER:                  -9.970
REMARK INTRA:                  -1.579
REMARK UNBOUND:                -1.579
REMARK  8 active torsions:
REMARK  status: ('A' for Active; 'I' for Inactive)
REMARK    1  A    between atoms: P_1  and  O3'_9 
REMARK    2  A    between atoms: PA_2  and  O5'_5 
REMARK    3  A    between atoms: PA_2  and  O3A_23 
REMARK    4  A    between atoms: PB_3  and  O3A_23 
REMARK    5  A    between atoms: C5'_4  and  O5'_5 
REMARK    6  A    between atoms: C5'_4  and  C4'_6 
REMARK    7  A    between atoms: C3'_8  and  O3'_9 
REMARK    8  A    between atoms: C1'_12  and  N9_31 
ROOT
HETATM    1  C4' PAP A 125      36.836   4.812  24.435  1.00 30.66     0.178 C 
HETATM    2  O4' PAP A 125      37.167   3.436  24.649  1.00 30.64    -0.331 OA
HETATM    3  C3' PAP A 125      37.356   5.181  23.019  1.00 32.01     0.192 C 
HETATM    4  C2' PAP A 125      37.461   3.801  22.379  1.00 31.03     0.231 C 
HETATM    5  O2' PAP A 125      38.362   3.823  21.250  1.00 29.14    -0.216 OA
HETATM    6  C1' PAP A 125      38.065   3.091  23.607  1.00 29.59     0.241 C 
ENDROOT
BRANCH   1   7
HETATM    7  C5' PAP A 125      35.342   4.895  24.556  1.00 29.07     0.187 C 
BRANCH   7   8
HETATM    8  O5' PAP A 125      34.929   5.805  23.555  1.00 30.13    -0.268 OA
BRANCH   8   9
HETATM    9  PA  PAP A 125      34.174   7.193  23.949  1.00 31.22     0.419 P 
HETATM   10  O1A PAP A 125      34.169   8.042  22.721  1.00 32.37    -0.624 OA
HETATM   11  O2A PAP A 125      32.871   6.865  24.589  1.00 32.57    -0.624 OA
BRANCH   9  12
HETATM   12  O3A PAP A 125      35.272   7.999  24.998  1.00 29.92    -0.173 OA
BRANCH  12  13
HETATM   13  PB  PAP A 125      35.393   9.460  25.746  1.00 26.94     0.431 P 
HETATM   14  O1B PAP A 125      36.348  10.237  24.930  1.00 24.20    -0.616 OA
HETATM   15  O2B PAP A 125      33.984   9.979  25.726  1.00 26.86    -0.616 OA
HETATM   16  O3B PAP A 125      35.886   9.151  27.109  1.00 28.16    -0.616 OA
ENDBRANCH  12  13
ENDBRANCH   9  12
ENDBRANCH   8   9
ENDBRANCH   7   8
ENDBRANCH   1   7
BRANCH   3  17
HETATM   17  O3' PAP A 125      38.663   5.813  23.133  1.00 36.20    -0.261 OA
BRANCH  17  18
HETATM   18  P   PAP A 125      38.804   7.508  23.284  1.00 39.68     0.423 P 
HETATM   19  O1  PAP A 125      37.604   7.952  22.532  1.00 40.50    -0.617 OA
HETATM   20  O2  PAP A 125      38.737   7.708  24.754  1.00 39.38    -0.617 OA
HETATM   21  O3  PAP A 125      40.136   7.869  22.708  1.00 40.59    -0.617 OA
ENDBRANCH  17  18
ENDBRANCH   3  17
BRANCH   6  22
HETATM   22  N9  PAP A 125      38.057   1.610  23.591  1.00 29.22    -0.270 N 
HETATM   23  C4  PAP A 125      38.826   0.681  22.841  1.00 29.28     0.170 A 
HETATM   24  N3  PAP A 125      39.797   0.900  21.885  1.00 29.66    -0.205 NA
HETATM   25  C5  PAP A 125      38.388  -0.571  23.258  1.00 29.93     0.155 A 
HETATM   26  C2  PAP A 125      40.260  -0.275  21.395  1.00 28.29     0.202 A 
HETATM   27  N1  PAP A 125      39.935  -1.542  21.690  1.00 27.66    -0.202 NA
HETATM   28  C6  PAP A 125      38.991  -1.752  22.645  1.00 28.82     0.206 A 
HETATM   29  N6  PAP A 125      38.695  -3.005  23.042  1.00 26.39    -0.125 N 
HETATM   30  N7  PAP A 125      37.364  -0.420  24.247  1.00 30.19    -0.219 NA
HETATM   31  C8  PAP A 125      37.226   0.865  24.389  1.00 28.80     0.182 A 
ENDBRANCH   6  22
TORSDOF 8
ENDMDL
MODEL 2
REMARK VINA RESULT:    -6.751      2.381      3.588
REMARK INTER + INTRA:         -11.487
REMARK INTER:                 -10.297
REMARK INTRA:                  -1.189
REMARK UNBOUND:                -1.579
REMARK  8 active torsions:
REMARK  status: ('A' for Active; 'I' for Inactive)
REMARK    1  A    between atoms: P_1  and  O3'_9 
REMARK    2  A    between atoms: PA_2  and  O5'_5 
REMARK    3  A    between atoms: PA_2  and  O3A_23 
REMARK    4  A    between atoms: PB_3  and  O3A_23 
REMARK    5  A    between atoms: C5'_4  and  O5'_5 
REMARK    6  A    between atoms: C5'_4  and  C4'_6 
REMARK    7  A    between atoms: C3'_8  and  O3'_9 
REMARK    8  A    between atoms: C1'_12  and  N9_31 
ROOT
HETATM    1  C4' PAP A 125      37.693   2.153  25.353  1.00 30.66     0.178 C 
HETATM    2  O4' PAP A 125      37.385   0.774  25.123  1.00 30.64    -0.331 OA
HETATM    3  C3' PAP A 125      38.811   2.535  24.344  1.00 32.01     0.192 C 
HETATM    4  C2' PAP A 125      38.636   1.447  23.292  1.00 31.03     0.231 C 
HETATM    5  O2' PAP A 125      39.839   1.290  22.507  1.00 29.14    -0.216 OA
HETATM    6  C1' PAP A 125      38.417   0.286  24.282  1.00 29.59     0.241 C 
ENDROOT
BRANCH   1   7
HETATM    7  C5' PAP A 125      36.411   2.900  25.125  1.00 29.07     0.187 C 
BRANCH   7   8
HETATM    8  O5' PAP A 125      36.771   4.267  25.080  1.00 30.13    -0.268 OA
BRANCH   8   9
HETATM    9  PA  PAP A 125      36.269   5.223  23.861  1.00 31.22     0.419 P 
HETATM   10  O1A PAP A 125      37.462   5.993  23.401  1.00 32.37    -0.624 OA
HETATM   11  O2A PAP A 125      35.537   4.390  22.869  1.00 32.57    -0.624 OA
BRANCH   9  12
HETATM   12  O3A PAP A 125      35.285   6.411  24.621  1.00 29.92    -0.173 OA
BRANCH  12  13
HETATM   13  PB  PAP A 125      34.119   7.488  24.186  1.00 26.94     0.431 P 
HETATM   14  O1B PAP A 125      34.312   7.705  22.738  1.00 24.20    -0.616 OA
HETATM   15  O2B PAP A 125      32.842   6.786  24.551  1.00 26.86    -0.616 OA
HETATM   16  O3B PAP A 125      34.384   8.691  25.011  1.00 28.16    -0.616 OA
ENDBRANCH  12  13
ENDBRANCH   9  12
ENDBRANCH   8   9
ENDBRANCH   7   8
ENDBRANCH   1   7
BRANCH   3  17
HETATM   17  O3' PAP A 125      40.107   2.436  25.000  1.00 36.20    -0.261 OA
BRANCH  17  18
HETATM   18  P   PAP A 125      41.125   3.800  25.137  1.00 39.68     0.423 P 
HETATM   19  O1  PAP A 125      41.608   3.643  26.532  1.00 40.50    -0.617 OA
HETATM   20  O2  PAP A 125      42.142   3.552  24.085  1.00 39.38    -0.617 OA
HETATM   21  O3  PAP A 125      40.268   4.991  24.848  1.00 40.59    -0.617 OA
ENDBRANCH  17  18
ENDBRANCH   3  17
BRANCH   6  22
HETATM   22  N9  PAP A 125      37.871  -0.972  23.724  1.00 29.22    -0.270 N 
HETATM   23  C4  PAP A 125      38.364  -2.304  23.768  1.00 29.28     0.170 A 
HETATM   24  N3  PAP A 125      39.519  -2.804  24.333  1.00 29.66    -0.205 NA
HETATM   25  C5  PAP A 125      37.420  -3.062  23.083  1.00 29.93     0.155 A 
HETATM   26  C2  PAP A 125      39.619  -4.138  24.119  1.00 28.29     0.202 A 
HETATM   27  N1  PAP A 125      38.803  -4.991  23.481  1.00 27.66    -0.202 NA
HETATM   28  C6  PAP A 125      37.658  -4.496  22.942  1.00 28.82     0.206 A 
HETATM   29  N6  PAP A 125      36.764  -5.325  22.372  1.00 26.39    -0.125 N 
HETATM   30  N7  PAP A 125      36.363  -2.214  22.621  1.00 30.19    -0.219 NA
HETATM   31  C8  PAP A 125      36.690  -1.023  23.027  1.00 28.80     0.182 A 
ENDBRANCH   6  22
TORSDOF 8
ENDMDL
MODEL 3
REMARK VINA RESULT:    -6.728      2.869      4.022
REMARK INTER + INTRA:         -11.454
REMARK INTER:                 -10.338
REMARK INTRA:                  -1.117
REMARK UNBOUND:                -1.579
REMARK  8 active torsions:
REMARK  status: ('A' for Active; 'I' for Inactive)
REMARK    1  A    between atoms: P_1  and  O3'_9 
REMARK    2  A    between atoms: PA_2  and  O5'_5 
REMARK    3  A    between atoms: PA_2  and  O3A_23 
REMARK    4  A    between atoms: PB_3  and  O3A_23 
REMARK    5  A    between atoms: C5'_4  and  O5'_5 
REMARK    6  A    between atoms: C5'_4  and  C4'_6 
REMARK    7  A    between atoms: C3'_8  and  O3'_9 
REMARK    8  A    between atoms: C1'_12  and  N9_31 
ROOT
HETATM    1  C4' PAP A 125      39.342   2.964  24.945  1.00 30.66     0.178 C 
HETATM    2  O4' PAP A 125      38.580   1.754  24.883  1.00 30.64    -0.331 OA
HETATM    3  C3' PAP A 125      40.555   2.776  23.993  1.00 32.01     0.192 C 
HETATM    4  C2' PAP A 125      40.046   1.659  23.091  1.00 31.03     0.231 C 
HETATM    5  O2' PAP A 125      41.144   0.979  22.443  1.00 29.14    -0.216 OA
HETATM    6  C1' PAP A 125      39.404   0.816  24.211  1.00 29.59     0.241 C 
ENDROOT
BRANCH   1   7
HETATM    7  C5' PAP A 125      38.409   4.056  24.506  1.00 29.07     0.187 C 
BRANCH   7   8
HETATM    8  O5' PAP A 125      37.306   3.991  25.388  1.00 30.13    -0.268 OA
BRANCH   8   9
HETATM    9  PA  PAP A 125      35.796   3.767  24.822  1.00 31.22     0.419 P 
HETATM   10  O1A PAP A 125      35.915   3.567  23.348  1.00 32.37    -0.624 OA
HETATM   11  O2A PAP A 125      35.134   2.707  25.630  1.00 32.57    -0.624 OA
BRANCH   9  12
HETATM   12  O3A PAP A 125      35.049   5.309  24.966  1.00 29.92    -0.173 OA
BRANCH  12  13
HETATM   13  PB  PAP A 125      35.068   6.752  24.175  1.00 26.94     0.431 P 
HETATM   14  O1B PAP A 125      35.191   7.774  25.233  1.00 24.20    -0.616 OA
HETATM   15  O2B PAP A 125      36.264   6.637  23.272  1.00 26.86    -0.616 OA
HETATM   16  O3B PAP A 125      33.782   6.803  23.441  1.00 28.16    -0.616 OA
ENDBRANCH  12  13
ENDBRANCH   9  12
ENDBRANCH   8   9
ENDBRANCH   7   8
ENDBRANCH   1   7
BRANCH   3  17
HETATM   17  O3' PAP A 125      41.714   2.349  24.765  1.00 36.20    -0.261 OA
BRANCH  17  18
HETATM   18  P   PAP A 125      42.478   3.415  25.859  1.00 39.68     0.423 P 
HETATM   19  O1  PAP A 125      41.839   3.005  27.134  1.00 40.50    -0.617 OA
HETATM   20  O2  PAP A 125      43.909   3.047  25.722  1.00 39.38    -0.617 OA
HETATM   21  O3  PAP A 125      42.184   4.797  25.369  1.00 40.59    -0.617 OA
ENDBRANCH  17  18
ENDBRANCH   3  17
BRANCH   6  22
HETATM   22  N9  PAP A 125      38.472  -0.254  23.788  1.00 29.22    -0.270 N 
HETATM   23  C4  PAP A 125      38.607  -1.668  23.799  1.00 29.28     0.170 A 
HETATM   24  N3  PAP A 125      39.672  -2.454  24.192  1.00 29.66    -0.205 NA
HETATM   25  C5  PAP A 125      37.404  -2.151  23.297  1.00 29.93     0.155 A 
HETATM   26  C2  PAP A 125      39.390  -3.767  24.011  1.00 28.29     0.202 A 
HETATM   27  N1  PAP A 125      38.293  -4.376  23.538  1.00 27.66    -0.202 NA
HETATM   28  C6  PAP A 125      37.241  -3.597  23.169  1.00 28.82     0.206 A 
HETATM   29  N6  PAP A 125      36.085  -4.163  22.774  1.00 26.39    -0.125 N 
HETATM   30  N7  PAP A 125      36.539  -1.055  22.978  1.00 30.19    -0.219 NA
HETATM   31  C8  PAP A 125      37.221   0.007  23.288  1.00 28.80     0.182 A 
ENDBRANCH   6  22
TORSDOF 8
ENDMDL
MODEL 4
REMARK VINA RESULT:    -6.713      5.822      9.183
REMARK INTER + INTRA:         -11.431
REMARK INTER:                  -9.971
REMARK INTRA:                  -1.460
REMARK UNBOUND:                -1.579
REMARK  8 active torsions:
REMARK  status: ('A' for Active; 'I' for Inactive)
REMARK    1  A    between atoms: P_1  and  O3'_9 
REMARK    2  A    between atoms: PA_2  and  O5'_5 
REMARK    3  A    between atoms: PA_2  and  O3A_23 
REMARK    4  A    between atoms: PB_3  and  O3A_23 
REMARK    5  A    between atoms: C5'_4  and  O5'_5 
REMARK    6  A    between atoms: C5'_4  and  C4'_6 
REMARK    7  A    between atoms: C3'_8  and  O3'_9 
REMARK    8  A    between atoms: C1'_12  and  N9_31 
ROOT
HETATM    1  C4' PAP A 125      36.833   6.992  24.294  1.00 30.66     0.178 C 
HETATM    2  O4' PAP A 125      36.459   8.191  24.981  1.00 30.64    -0.331 OA
HETATM    3  C3' PAP A 125      35.523   6.199  24.034  1.00 32.01     0.192 C 
HETATM    4  C2' PAP A 125      34.484   7.309  24.147  1.00 31.03     0.231 C 
HETATM    5  O2' PAP A 125      33.175   6.764  24.423  1.00 29.14    -0.216 OA
HETATM    6  C1' PAP A 125      35.109   8.002  25.374  1.00 29.59     0.241 C 
ENDROOT
BRANCH   1   7
HETATM    7  C5' PAP A 125      37.512   7.441  23.032  1.00 29.07     0.187 C 
BRANCH   7   8
HETATM    8  O5' PAP A 125      37.751   6.262  22.289  1.00 30.13    -0.268 OA
BRANCH   8   9
HETATM    9  PA  PAP A 125      39.265   5.702  22.076  1.00 31.22     0.419 P 
HETATM   10  O1A PAP A 125      39.500   5.648  20.603  1.00 32.37    -0.624 OA
HETATM   11  O2A PAP A 125      40.196   6.507  22.914  1.00 32.57    -0.624 OA
BRANCH   9  12
HETATM   12  O3A PAP A 125      39.181   4.048  22.537  1.00 29.92    -0.173 OA
BRANCH  12  13
HETATM   13  PB  PAP A 125      39.177   2.576  21.801  1.00 26.94     0.431 P 
HETATM   14  O1B PAP A 125      40.517   2.441  21.193  1.00 24.20    -0.616 OA
HETATM   15  O2B PAP A 125      38.903   1.622  22.929  1.00 26.86    -0.616 OA
HETATM   16  O3B PAP A 125      38.077   2.646  20.811  1.00 28.16    -0.616 OA
ENDBRANCH  12  13
ENDBRANCH   9  12
ENDBRANCH   8   9
ENDBRANCH   7   8
ENDBRANCH   1   7
BRANCH   3  17
HETATM   17  O3' PAP A 125      35.347   5.200  25.079  1.00 36.20    -0.261 OA
BRANCH  17  18
HETATM   18  P   PAP A 125      36.054   3.653  24.938  1.00 39.68     0.423 P 
HETATM   19  O1  PAP A 125      35.072   2.832  25.689  1.00 40.50    -0.617 OA
HETATM   20  O2  PAP A 125      36.067   3.436  23.469  1.00 39.38    -0.617 OA
HETATM   21  O3  PAP A 125      37.427   3.766  25.520  1.00 40.59    -0.617 OA
ENDBRANCH  17  18
ENDBRANCH   3  17
BRANCH   6  22
HETATM   22  N9  PAP A 125      34.625   9.366  25.688  1.00 29.22    -0.270 N 
HETATM   23  C4  PAP A 125      34.960  10.255  26.743  1.00 29.28     0.170 A 
HETATM   24  N3  PAP A 125      35.831  10.088  27.801  1.00 29.66    -0.205 NA
HETATM   25  C5  PAP A 125      34.196  11.394  26.514  1.00 29.93     0.155 A 
HETATM   26  C2  PAP A 125      35.832  11.183  28.598  1.00 28.29     0.202 A 
HETATM   27  N1  PAP A 125      35.154  12.338  28.510  1.00 27.66    -0.202 NA
HETATM   28  C6  PAP A 125      34.312  12.503  27.456  1.00 28.82     0.206 A 
HETATM   29  N6  PAP A 125      33.679  13.678  27.273  1.00 26.39    -0.125 N 
HETATM   30  N7  PAP A 125      33.399  11.212  25.339  1.00 30.19    -0.219 NA
HETATM   31  C8  PAP A 125      33.698  10.019  24.915  1.00 28.80     0.182 A 
ENDBRANCH   6  22
TORSDOF 8
ENDMDL
MODEL 5
REMARK VINA RESULT:    -6.676      5.819      8.715
REMARK INTER + INTRA:         -11.378
REMARK INTER:                  -9.987
REMARK INTRA:                  -1.391
REMARK UNBOUND:                -1.579
REMARK  8 active torsions:
REMARK  status: ('A' for Active; 'I' for Inactive)
REMARK    1  A    between atoms: P_1  and  O3'_9 
REMARK    2  A    between atoms: PA_2  and  O5'_5 
REMARK    3  A    between atoms: PA_2  and  O3A_23 
REMARK    4  A    between atoms: PB_3  and  O3A_23 
REMARK    5  A    between atoms: C5'_4  and  O5'_5 
REMARK    6  A    between atoms: C5'_4  and  C4'_6 
REMARK    7  A    between atoms: C3'_8  and  O3'_9 
REMARK    8  A    between atoms: C1'_12  and  N9_31 
ROOT
HETATM    1  C4' PAP A 125      37.245   7.168  24.681  1.00 30.66     0.178 C 
HETATM    2  O4' PAP A 125      36.728   8.338  25.323  1.00 30.64    -0.331 OA
HETATM    3  C3' PAP A 125      36.022   6.290  24.300  1.00 32.01     0.192 C 
HETATM    4  C2' PAP A 125      34.907   7.329  24.306  1.00 31.03     0.231 C 
HETATM    5  O2' PAP A 125      33.615   6.698  24.455  1.00 29.14    -0.216 OA
HETATM    6  C1' PAP A 125      35.362   8.059  25.584  1.00 29.59     0.241 C 
ENDROOT
BRANCH   1   7
HETATM    7  C5' PAP A 125      38.013   7.663  23.489  1.00 29.07     0.187 C 
BRANCH   7   8
HETATM    8  O5' PAP A 125      38.131   9.060  23.668  1.00 30.13    -0.268 OA
BRANCH   8   9
HETATM    9  PA  PAP A 125      37.948  10.081  22.412  1.00 31.22     0.419 P 
HETATM   10  O1A PAP A 125      38.485  11.402  22.850  1.00 32.37    -0.624 OA
HETATM   11  O2A PAP A 125      38.525   9.450  21.194  1.00 32.57    -0.624 OA
BRANCH   9  12
HETATM   12  O3A PAP A 125      36.252  10.342  22.313  1.00 29.92    -0.173 OA
BRANCH  12  13
HETATM   13  PB  PAP A 125      35.055  10.172  21.196  1.00 26.94     0.431 P 
HETATM   14  O1B PAP A 125      34.339   8.938  21.578  1.00 24.20    -0.616 OA
HETATM   15  O2B PAP A 125      34.255  11.434  21.347  1.00 26.86    -0.616 OA
HETATM   16  O3B PAP A 125      35.758  10.074  19.895  1.00 28.16    -0.616 OA
ENDBRANCH  12  13
ENDBRANCH   9  12
ENDBRANCH   8   9
ENDBRANCH   7   8
ENDBRANCH   1   7
BRANCH   3  17
HETATM   17  O3' PAP A 125      35.812   5.280  25.327  1.00 36.20    -0.261 OA
BRANCH  17  18
HETATM   18  P   PAP A 125      36.158   3.636  25.022  1.00 39.68     0.423 P 
HETATM   19  O1  PAP A 125      36.132   3.621  23.538  1.00 40.50    -0.617 OA
HETATM   20  O2  PAP A 125      37.501   3.469  25.632  1.00 39.38    -0.617 OA
HETATM   21  O3  PAP A 125      35.099   2.849  25.724  1.00 40.59    -0.617 OA
ENDBRANCH  17  18
ENDBRANCH   3  17
BRANCH   6  22
HETATM   22  N9  PAP A 125      34.761   9.387  25.844  1.00 29.22    -0.270 N 
HETATM   23  C4  PAP A 125      34.981  10.324  26.888  1.00 29.28     0.170 A 
HETATM   24  N3  PAP A 125      35.817  10.249  27.985  1.00 29.66    -0.205 NA
HETATM   25  C5  PAP A 125      34.142  11.394  26.599  1.00 29.93     0.155 A 
HETATM   26  C2  PAP A 125      35.699  11.359  28.753  1.00 28.29     0.202 A 
HETATM   27  N1  PAP A 125      34.938  12.454  28.608  1.00 27.66    -0.202 NA
HETATM   28  C6  PAP A 125      34.131  12.530  27.517  1.00 28.82     0.206 A 
HETATM   29  N6  PAP A 125      33.417  13.647  27.278  1.00 26.39    -0.125 N 
HETATM   30  N7  PAP A 125      33.412  11.123  25.397  1.00 30.19    -0.219 NA
HETATM   31  C8  PAP A 125      33.820   9.949  25.017  1.00 28.80     0.182 A 
ENDBRANCH   6  22
TORSDOF 8
ENDMDL
MODEL 6
REMARK VINA RESULT:    -6.567      1.778      3.743
REMARK INTER + INTRA:         -11.217
REMARK INTER:                  -9.874
REMARK INTRA:                  -1.343
REMARK UNBOUND:                -1.579
REMARK  8 active torsions:
REMARK  status: ('A' for Active; 'I' for Inactive)
REMARK    1  A    between atoms: P_1  and  O3'_9 
REMARK    2  A    between atoms: PA_2  and  O5'_5 
REMARK    3  A    between atoms: PA_2  and  O3A_23 
REMARK    4  A    between atoms: PB_3  and  O3A_23 
REMARK    5  A    between atoms: C5'_4  and  O5'_5 
REMARK    6  A    between atoms: C5'_4  and  C4'_6 
REMARK    7  A    between atoms: C3'_8  and  O3'_9 
REMARK    8  A    between atoms: C1'_12  and  N9_31 
ROOT
HETATM    1  C4' PAP A 125      36.955   5.547  23.011  1.00 30.66     0.178 C 
HETATM    2  O4' PAP A 125      37.237   4.153  22.847  1.00 30.64    -0.331 OA
HETATM    3  C3' PAP A 125      36.334   5.713  24.424  1.00 32.01     0.192 C 
HETATM    4  C2' PAP A 125      36.826   4.444  25.109  1.00 31.03     0.231 C 
HETATM    5  O2' PAP A 125      36.005   4.125  26.255  1.00 29.14    -0.216 OA
HETATM    6  C1' PAP A 125      36.574   3.499  23.917  1.00 29.59     0.241 C 
ENDROOT
BRANCH   1   7
HETATM    7  C5' PAP A 125      38.273   6.249  22.857  1.00 29.07     0.187 C 
BRANCH   7   8
HETATM    8  O5' PAP A 125      37.965   7.518  22.313  1.00 30.13    -0.268 OA
BRANCH   8   9
HETATM    9  PA  PAP A 125      38.301   8.883  23.135  1.00 31.22     0.419 P 
HETATM   10  O1A PAP A 125      38.411   8.502  24.574  1.00 32.37    -0.624 OA
HETATM   11  O2A PAP A 125      39.460   9.558  22.490  1.00 32.57    -0.624 OA
BRANCH   9  12
HETATM   12  O3A PAP A 125      36.847   9.797  23.064  1.00 29.92    -0.173 OA
BRANCH  12  13
HETATM   13  PB  PAP A 125      36.003  10.662  21.946  1.00 26.94     0.431 P 
HETATM   14  O1B PAP A 125      34.702  10.954  22.582  1.00 24.20    -0.616 OA
HETATM   15  O2B PAP A 125      36.870  11.866  21.710  1.00 26.86    -0.616 OA
HETATM   16  O3B PAP A 125      35.904   9.769  20.768  1.00 28.16    -0.616 OA
ENDBRANCH  12  13
ENDBRANCH   9  12
ENDBRANCH   8   9
ENDBRANCH   7   8
ENDBRANCH   1   7
BRANCH   3  17
HETATM   17  O3' PAP A 125      34.882   5.729  24.316  1.00 36.20    -0.261 OA
BRANCH  17  18
HETATM   18  P   PAP A 125      34.030   7.203  24.179  1.00 39.68     0.423 P 
HETATM   19  O1  PAP A 125      32.687   6.789  24.654  1.00 40.50    -0.617 OA
HETATM   20  O2  PAP A 125      34.779   8.095  25.100  1.00 39.38    -0.617 OA
HETATM   21  O3  PAP A 125      34.143   7.619  22.747  1.00 40.59    -0.617 OA
ENDBRANCH  17  18
ENDBRANCH   3  17
BRANCH   6  22
HETATM   22  N9  PAP A 125      37.208   2.163  23.980  1.00 29.22    -0.270 N 
HETATM   23  C4  PAP A 125      38.553   1.757  23.770  1.00 29.28     0.170 A 
HETATM   24  N3  PAP A 125      39.661   2.504  23.422  1.00 29.66    -0.205 NA
HETATM   25  C5  PAP A 125      38.553   0.383  23.978  1.00 29.93     0.155 A 
HETATM   26  C2  PAP A 125      40.752   1.712  23.296  1.00 28.29     0.202 A 
HETATM   27  N1  PAP A 125      40.903   0.388  23.456  1.00 27.66    -0.202 NA
HETATM   28  C6  PAP A 125      39.813  -0.339  23.816  1.00 28.82     0.206 A 
HETATM   29  N6  PAP A 125      39.932  -1.655  24.078  1.00 26.39    -0.125 N 
HETATM   30  N7  PAP A 125      37.231  -0.056  24.308  1.00 30.19    -0.219 NA
HETATM   31  C8  PAP A 125      36.508   1.024  24.291  1.00 28.80     0.182 A 
ENDBRANCH   6  22
TORSDOF 8
ENDMDL
MODEL 7
REMARK VINA RESULT:    -6.461      2.044      3.554
REMARK INTER + INTRA:         -11.062
REMARK INTER:                  -9.713
REMARK INTRA:                  -1.349
REMARK UNBOUND:                -1.579
REMARK  8 active torsions:
REMARK  status: ('A' for Active; 'I' for Inactive)
REMARK    1  A    between atoms: P_1  and  O3'_9 
REMARK    2  A    between atoms: PA_2  and  O5'_5 
REMARK    3  A    between atoms: PA_2  and  O3A_23 
REMARK    4  A    between atoms: PB_3  and  O3A_23 
REMARK    5  A    between atoms: C5'_4  and  O5'_5 
REMARK    6  A    between atoms: C5'_4  and  C4'_6 
REMARK    7  A    between atoms: C3'_8  and  O3'_9 
REMARK    8  A    between atoms: C1'_12  and  N9_31 
ROOT
HETATM    1  C4' PAP A 125      38.188   2.228  24.115  1.00 30.66     0.178 C 
HETATM    2  O4' PAP A 125      38.634   0.882  24.310  1.00 30.64    -0.331 OA
HETATM    3  C3' PAP A 125      38.568   2.618  22.660  1.00 32.01     0.192 C 
HETATM    4  C2' PAP A 125      38.723   1.242  22.022  1.00 31.03     0.231 C 
HETATM    5  O2' PAP A 125      39.530   1.317  20.826  1.00 29.14    -0.216 OA
HETATM    6  C1' PAP A 125      39.471   0.591  23.202  1.00 29.59     0.241 C 
ENDROOT
BRANCH   1   7
HETATM    7  C5' PAP A 125      36.706   2.204  24.353  1.00 29.07     0.187 C 
BRANCH   7   8
HETATM    8  O5' PAP A 125      36.216   3.418  23.817  1.00 30.13    -0.268 OA
BRANCH   8   9
HETATM    9  PA  PAP A 125      36.115   4.757  24.738  1.00 31.22     0.419 P 
HETATM   10  O1A PAP A 125      35.702   4.310  26.101  1.00 32.37    -0.624 OA
HETATM   11  O2A PAP A 125      37.377   5.532  24.598  1.00 32.57    -0.624 OA
BRANCH   9  12
HETATM   12  O3A PAP A 125      34.730   5.585  24.144  1.00 29.92    -0.173 OA
BRANCH  12  13
HETATM   13  PB  PAP A 125      34.103   7.106  24.196  1.00 26.94     0.431 P 
HETATM   14  O1B PAP A 125      32.704   6.935  24.639  1.00 24.20    -0.616 OA
HETATM   15  O2B PAP A 125      34.990   7.814  25.180  1.00 26.86    -0.616 OA
HETATM   16  O3B PAP A 125      34.232   7.620  22.813  1.00 28.16    -0.616 OA
ENDBRANCH  12  13
ENDBRANCH   9  12
ENDBRANCH   8   9
ENDBRANCH   7   8
ENDBRANCH   1   7
BRANCH   3  17
HETATM   17  O3' PAP A 125      39.831   3.344  22.669  1.00 36.20    -0.261 OA
BRANCH  17  18
HETATM   18  P   PAP A 125      39.975   4.857  21.890  1.00 39.68     0.423 P 
HETATM   19  O1  PAP A 125      40.951   4.524  20.823  1.00 40.50    -0.617 OA
HETATM   20  O2  PAP A 125      38.589   5.112  21.421  1.00 39.38    -0.617 OA
HETATM   21  O3  PAP A 125      40.421   5.825  22.938  1.00 40.59    -0.617 OA
ENDBRANCH  17  18
ENDBRANCH   3  17
BRANCH   6  22
HETATM   22  N9  PAP A 125      39.570  -0.886  23.195  1.00 29.22    -0.270 N 
HETATM   23  C4  PAP A 125      38.568  -1.888  23.094  1.00 29.28     0.170 A 
HETATM   24  N3  PAP A 125      37.197  -1.764  22.993  1.00 29.66    -0.205 NA
HETATM   25  C5  PAP A 125      39.258  -3.095  23.130  1.00 29.93     0.155 A 
HETATM   26  C2  PAP A 125      36.609  -2.983  22.947  1.00 28.29     0.202 A 
HETATM   27  N1  PAP A 125      37.134  -4.218  22.978  1.00 27.66    -0.202 NA
HETATM   28  C6  PAP A 125      38.486  -4.332  23.060  1.00 28.82     0.206 A 
HETATM   29  N6  PAP A 125      39.067  -5.546  23.002  1.00 26.39    -0.125 N 
HETATM   30  N7  PAP A 125      40.662  -2.845  23.255  1.00 30.19    -0.219 NA
HETATM   31  C8  PAP A 125      40.768  -1.550  23.286  1.00 28.80     0.182 A 
ENDBRANCH   6  22
TORSDOF 8
ENDMDL
MODEL 8
REMARK VINA RESULT:    -6.359      5.802      9.118
REMARK INTER + INTRA:         -10.912
REMARK INTER:                  -9.618
REMARK INTRA:                  -1.294
REMARK UNBOUND:                -1.579
REMARK  8 active torsions:
REMARK  status: ('A' for Active; 'I' for Inactive)
REMARK    1  A    between atoms: P_1  and  O3'_9 
REMARK    2  A    between atoms: PA_2  and  O5'_5 
REMARK    3  A    between atoms: PA_2  and  O3A_23 
REMARK    4  A    between atoms: PB_3  and  O3A_23 
REMARK    5  A    between atoms: C5'_4  and  O5'_5 
REMARK    6  A    between atoms: C5'_4  and  C4'_6 
REMARK    7  A    between atoms: C3'_8  and  O3'_9 
REMARK    8  A    between atoms: C1'_12  and  N9_31 
ROOT
HETATM    1  C4' PAP A 125      37.184   7.020  24.585  1.00 30.66     0.178 C 
HETATM    2  O4' PAP A 125      36.778   8.211  25.268  1.00 30.64    -0.331 OA
HETATM    3  C3' PAP A 125      35.888   6.231  24.254  1.00 32.01     0.192 C 
HETATM    4  C2' PAP A 125      34.846   7.340  24.330  1.00 31.03     0.231 C 
HETATM    5  O2' PAP A 125      33.525   6.792  24.536  1.00 29.14    -0.216 OA
HETATM    6  C1' PAP A 125      35.411   8.018  25.594  1.00 29.59     0.241 C 
ENDROOT
BRANCH   1   7
HETATM    7  C5' PAP A 125      37.923   7.484  23.363  1.00 29.07     0.187 C 
BRANCH   7   8
HETATM    8  O5' PAP A 125      39.049   6.636  23.256  1.00 30.13    -0.268 OA
BRANCH   8   9
HETATM    9  PA  PAP A 125      39.363   5.836  21.873  1.00 31.22     0.419 P 
HETATM   10  O1A PAP A 125      38.127   5.073  21.528  1.00 32.37    -0.624 OA
HETATM   11  O2A PAP A 125      39.904   6.797  20.874  1.00 32.57    -0.624 OA
BRANCH   9  12
HETATM   12  O3A PAP A 125      40.483   4.613  22.327  1.00 29.92    -0.173 OA
BRANCH  12  13
HETATM   13  PB  PAP A 125      40.597   3.422  23.457  1.00 26.94     0.431 P 
HETATM   14  O1B PAP A 125      41.877   2.740  23.177  1.00 24.20    -0.616 OA
HETATM   15  O2B PAP A 125      40.559   4.173  24.758  1.00 26.86    -0.616 OA
HETATM   16  O3B PAP A 125      39.405   2.570  23.236  1.00 28.16    -0.616 OA
ENDBRANCH  12  13
ENDBRANCH   9  12
ENDBRANCH   8   9
ENDBRANCH   7   8
ENDBRANCH   1   7
BRANCH   3  17
HETATM   17  O3' PAP A 125      35.663   5.220  25.277  1.00 36.20    -0.261 OA
BRANCH  17  18
HETATM   18  P   PAP A 125      36.151   3.602  25.031  1.00 39.68     0.423 P 
HETATM   19  O1  PAP A 125      37.466   3.603  25.718  1.00 40.50    -0.617 OA
HETATM   20  O2  PAP A 125      35.081   2.834  25.716  1.00 39.38    -0.617 OA
HETATM   21  O3  PAP A 125      36.161   3.390  23.551  1.00 40.59    -0.617 OA
ENDBRANCH  17  18
ENDBRANCH   3  17
BRANCH   6  22
HETATM   22  N9  PAP A 125      34.911   9.378  25.901  1.00 29.22    -0.270 N 
HETATM   23  C4  PAP A 125      35.137  10.224  27.018  1.00 29.28     0.170 A 
HETATM   24  N3  PAP A 125      35.880  10.006  28.161  1.00 29.66    -0.205 NA
HETATM   25  C5  PAP A 125      34.418  11.383  26.745  1.00 29.93     0.155 A 
HETATM   26  C2  PAP A 125      35.805  11.073  28.992  1.00 28.29     0.202 A 
HETATM   27  N1  PAP A 125      35.156  12.241  28.870  1.00 27.66    -0.202 NA
HETATM   28  C6  PAP A 125      34.441  12.457  27.735  1.00 28.82     0.206 A 
HETATM   29  N6  PAP A 125      33.848  13.648  27.524  1.00 26.39    -0.125 N 
HETATM   30  N7  PAP A 125      33.757  11.255  25.482  1.00 30.19    -0.219 NA
HETATM   31  C8  PAP A 125      34.086  10.073  25.052  1.00 28.80     0.182 A 
ENDBRANCH   6  22
TORSDOF 8
ENDMDL
MODEL 9
REMARK VINA RESULT:    -6.316      2.555      5.342
REMARK INTER + INTRA:         -10.850
REMARK INTER:                  -9.733
REMARK INTRA:                  -1.116
REMARK UNBOUND:                -1.579
REMARK  8 active torsions:
REMARK  status: ('A' for Active; 'I' for Inactive)
REMARK    1  A    between atoms: P_1  and  O3'_9 
REMARK    2  A    between atoms: PA_2  and  O5'_5 
REMARK    3  A    between atoms: PA_2  and  O3A_23 
REMARK    4  A    between atoms: PB_3  and  O3A_23 
REMARK    5  A    between atoms: C5'_4  and  O5'_5 
REMARK    6  A    between atoms: C5'_4  and  C4'_6 
REMARK    7  A    between atoms: C3'_8  and  O3'_9 
REMARK    8  A    between atoms: C1'_12  and  N9_31 
ROOT
HETATM    1  C4' PAP A 125      37.546   5.539  23.760  1.00 30.66     0.178 C 
HETATM    2  O4' PAP A 125      37.873   4.206  23.352  1.00 30.64    -0.331 OA
HETATM    3  C3' PAP A 125      36.308   5.430  24.691  1.00 32.01     0.192 C 
HETATM    4  C2' PAP A 125      36.398   3.971  25.124  1.00 31.03     0.231 C 
HETATM    5  O2' PAP A 125      35.119   3.494  25.597  1.00 29.14    -0.216 OA
HETATM    6  C1' PAP A 125      36.768   3.405  23.739  1.00 29.59     0.241 C 
ENDROOT
BRANCH   1   7
HETATM    7  C5' PAP A 125      38.768   6.061  24.459  1.00 29.07     0.187 C 
BRANCH   7   8
HETATM    8  O5' PAP A 125      39.713   5.010  24.408  1.00 30.13    -0.268 OA
BRANCH   8   9
HETATM    9  PA  PAP A 125      41.268   5.304  24.028  1.00 31.22     0.419 P 
HETATM   10  O1A PAP A 125      41.514   4.665  22.701  1.00 32.37    -0.624 OA
HETATM   11  O2A PAP A 125      41.530   6.762  24.171  1.00 32.57    -0.624 OA
BRANCH   9  12
HETATM   12  O3A PAP A 125      42.171   4.333  25.122  1.00 29.92    -0.173 OA
BRANCH  12  13
HETATM   13  PB  PAP A 125      42.170   2.777  25.657  1.00 26.94     0.431 P 
HETATM   14  O1B PAP A 125      41.792   2.857  27.083  1.00 24.20    -0.616 OA
HETATM   15  O2B PAP A 125      41.154   2.107  24.777  1.00 26.86    -0.616 OA
HETATM   16  O3B PAP A 125      43.552   2.293  25.432  1.00 28.16    -0.616 OA
ENDBRANCH  12  13
ENDBRANCH   9  12
ENDBRANCH   8   9
ENDBRANCH   7   8
ENDBRANCH   1   7
BRANCH   3  17
HETATM   17  O3' PAP A 125      35.099   5.680  23.919  1.00 36.20    -0.261 OA
BRANCH  17  18
HETATM   18  P   PAP A 125      34.203   7.117  24.138  1.00 39.68     0.423 P 
HETATM   19  O1  PAP A 125      35.019   7.794  25.177  1.00 40.50    -0.617 OA
HETATM   20  O2  PAP A 125      34.254   7.739  22.791  1.00 39.38    -0.617 OA
HETATM   21  O3  PAP A 125      32.824   6.694  24.531  1.00 40.59    -0.617 OA
ENDBRANCH  17  18
ENDBRANCH   3  17
BRANCH   6  22
HETATM   22  N9  PAP A 125      37.288   2.020  23.702  1.00 29.22    -0.270 N 
HETATM   23  C4  PAP A 125      38.265   1.412  22.869  1.00 29.28     0.170 A 
HETATM   24  N3  PAP A 125      39.000   1.944  21.829  1.00 29.66    -0.205 NA
HETATM   25  C5  PAP A 125      38.345   0.094  23.307  1.00 29.93     0.155 A 
HETATM   26  C2  PAP A 125      39.805   1.003  21.280  1.00 28.29     0.202 A 
HETATM   27  N1  PAP A 125      39.984  -0.291  21.586  1.00 27.66    -0.202 NA
HETATM   28  C6  PAP A 125      39.270  -0.805  22.623  1.00 28.82     0.206 A 
HETATM   29  N6  PAP A 125      39.481  -2.072  23.028  1.00 26.39    -0.125 N 
HETATM   30  N7  PAP A 125      37.432  -0.110  24.391  1.00 30.19    -0.219 NA
HETATM   31  C8  PAP A 125      36.857   1.043  24.564  1.00 28.80     0.182 A 
ENDBRANCH   6  22
TORSDOF 8
ENDMDL
