MODEL 1
REMARK VINA RESULT:    -5.939      0.000      0.000
REMARK INTER + INTRA:         -10.158
REMARK INTER:                  -8.716
REMARK INTRA:                  -1.443
REMARK UNBOUND:                -1.443
REMARK  8 active torsions:
REMARK  status: ('A' for Active; 'I' for Inactive)
REMARK    1  A    between atoms: P_1  and  O3'_9 
REMARK    2  A    between atoms: PA_2  and  O5'_5 
REMARK    3  A    between atoms: PA_2  and  O3A_23 
REMARK    4  A    between atoms: PB_3  and  O3A_23 
REMARK    5  A    between atoms: C5'_4  and  O5'_5 
REMARK    6  A    between atoms: C5'_4  and  C4'_6 
REMARK    7  A    between atoms: C3'_8  and  O3'_9 
REMARK    8  A    between atoms: C1'_12  and  N9_31 
ROOT
HETATM    1  C4' PAP A 125      41.695 -10.337  32.397  1.00 30.66     0.178 C 
HETATM    2  O4' PAP A 125      42.078  -9.096  31.796  1.00 30.64    -0.331 OA
HETATM    3  C3' PAP A 125      40.879 -11.117  31.330  1.00 32.01     0.192 C 
HETATM    4  C2' PAP A 125      41.348 -10.434  30.050  1.00 31.03     0.231 C 
HETATM    5  O2' PAP A 125      40.400 -10.638  28.979  1.00 29.14    -0.216 OA
HETATM    6  C1' PAP A 125      41.316  -8.996  30.604  1.00 29.59     0.241 C 
ENDROOT
BRANCH   1   7
HETATM    7  C5' PAP A 125      42.977 -11.020  32.775  1.00 29.07     0.187 C 
BRANCH   7   8
HETATM    8  O5' PAP A 125      44.009 -10.206  32.253  1.00 30.13    -0.268 OA
BRANCH   8   9
HETATM    9  PA  PAP A 125      45.203 -10.848  31.351  1.00 31.22     0.419 P 
HETATM   10  O1A PAP A 125      44.653 -12.088  30.730  1.00 32.37    -0.624 OA
HETATM   11  O2A PAP A 125      45.751  -9.791  30.458  1.00 32.57    -0.624 OA
BRANCH   9  12
HETATM   12  O3A PAP A 125      46.341 -11.436  32.498  1.00 29.92    -0.173 OA
BRANCH  12  13
HETATM   13  PB  PAP A 125      47.293 -10.826  33.694  1.00 26.94     0.431 P 
HETATM   14  O1B PAP A 125      48.403 -10.143  32.998  1.00 24.20    -0.616 OA
HETATM   15  O2B PAP A 125      46.367  -9.911  34.444  1.00 26.86    -0.616 OA
HETATM   16  O3B PAP A 125      47.720 -12.005  34.483  1.00 28.16    -0.616 OA
ENDBRANCH  12  13
ENDBRANCH   9  12
ENDBRANCH   8   9
ENDBRANCH   7   8
ENDBRANCH   1   7
BRANCH   3  17
HETATM   17  O3' PAP A 125      39.457 -10.901  31.556  1.00 36.20    -0.261 OA
BRANCH  17  18
HETATM   18  P   PAP A 125      38.432 -12.199  31.983  1.00 39.68     0.423 P 
HETATM   19  O1  PAP A 125      37.944 -12.615  30.644  1.00 40.50    -0.617 OA
HETATM   20  O2  PAP A 125      39.368 -13.148  32.637  1.00 39.38    -0.617 OA
HETATM   21  O3  PAP A 125      37.419 -11.637  32.927  1.00 40.59    -0.617 OA
ENDBRANCH  17  18
ENDBRANCH   3  17
BRANCH   6  22
HETATM   22  N9  PAP A 125      42.013  -7.959  29.809  1.00 29.22    -0.270 N 
HETATM   23  C4  PAP A 125      41.863  -6.547  29.779  1.00 29.28     0.170 A 
HETATM   24  N3  PAP A 125      40.995  -5.733  30.478  1.00 29.66    -0.205 NA
HETATM   25  C5  PAP A 125      42.796  -6.103  28.850  1.00 29.93     0.155 A 
HETATM   26  C2  PAP A 125      41.166  -4.436  30.126  1.00 28.29     0.202 A 
HETATM   27  N1  PAP A 125      42.009  -3.864  29.253  1.00 27.66    -0.202 NA
HETATM   28  C6  PAP A 125      42.874  -4.670  28.581  1.00 28.82     0.206 A 
HETATM   29  N6  PAP A 125      43.801  -4.135  27.763  1.00 26.39    -0.125 N 
HETATM   30  N7  PAP A 125      43.511  -7.221  28.311  1.00 30.19    -0.219 NA
HETATM   31  C8  PAP A 125      43.007  -8.258  28.911  1.00 28.80     0.182 A 
ENDBRANCH   6  22
TORSDOF 8
ENDMDL
MODEL 2
REMARK VINA RESULT:    -5.824      1.940      3.448
REMARK INTER + INTRA:          -9.990
REMARK INTER:                  -8.356
REMARK INTRA:                  -1.634
REMARK UNBOUND:                -1.443
REMARK  8 active torsions:
REMARK  status: ('A' for Active; 'I' for Inactive)
REMARK    1  A    between atoms: P_1  and  O3'_9 
REMARK    2  A    between atoms: PA_2  and  O5'_5 
REMARK    3  A    between atoms: PA_2  and  O3A_23 
REMARK    4  A    between atoms: PB_3  and  O3A_23 
REMARK    5  A    between atoms: C5'_4  and  O5'_5 
REMARK    6  A    between atoms: C5'_4  and  C4'_6 
REMARK    7  A    between atoms: C3'_8  and  O3'_9 
REMARK    8  A    between atoms: C1'_12  and  N9_31 
ROOT
HETATM    1  C4' PAP A 125      41.815 -10.368  32.299  1.00 30.66     0.178 C 
HETATM    2  O4' PAP A 125      42.203  -9.117  31.720  1.00 30.64    -0.331 OA
HETATM    3  C3' PAP A 125      40.926 -11.089  31.250  1.00 32.01     0.192 C 
HETATM    4  C2' PAP A 125      41.350 -10.377  29.971  1.00 31.03     0.231 C 
HETATM    5  O2' PAP A 125      40.345 -10.521  28.943  1.00 29.14    -0.216 OA
HETATM    6  C1' PAP A 125      41.385  -8.957  30.571  1.00 29.59     0.241 C 
ENDROOT
BRANCH   1   7
HETATM    7  C5' PAP A 125      43.095 -11.096  32.591  1.00 29.07     0.187 C 
BRANCH   7   8
HETATM    8  O5' PAP A 125      42.852 -12.445  32.245  1.00 30.13    -0.268 OA
BRANCH   8   9
HETATM    9  PA  PAP A 125      43.856 -13.244  31.242  1.00 31.22     0.419 P 
HETATM   10  O1A PAP A 125      44.813 -12.235  30.700  1.00 32.37    -0.624 OA
HETATM   11  O2A PAP A 125      44.404 -14.429  31.956  1.00 32.57    -0.624 OA
BRANCH   9  12
HETATM   12  O3A PAP A 125      42.879 -13.649  29.886  1.00 29.92    -0.173 OA
BRANCH  12  13
HETATM   13  PB  PAP A 125      41.605 -14.636  29.554  1.00 26.94     0.431 P 
HETATM   14  O1B PAP A 125      40.689 -13.823  28.728  1.00 24.20    -0.616 OA
HETATM   15  O2B PAP A 125      42.238 -15.792  28.834  1.00 26.86    -0.616 OA
HETATM   16  O3B PAP A 125      41.048 -15.002  30.877  1.00 28.16    -0.616 OA
ENDBRANCH  12  13
ENDBRANCH   9  12
ENDBRANCH   8   9
ENDBRANCH   7   8
ENDBRANCH   1   7
BRANCH   3  17
HETATM   17  O3' PAP A 125      39.523 -10.844  31.554  1.00 36.20    -0.261 OA
BRANCH  17  18
HETATM   18  P   PAP A 125      38.498 -12.119  32.044  1.00 39.68     0.423 P 
HETATM   19  O1  PAP A 125      38.129 -12.696  30.727  1.00 40.50    -0.617 OA
HETATM   20  O2  PAP A 125      39.400 -12.959  32.872  1.00 39.38    -0.617 OA
HETATM   21  O3  PAP A 125      37.399 -11.489  32.839  1.00 40.59    -0.617 OA
ENDBRANCH  17  18
ENDBRANCH   3  17
BRANCH   6  22
HETATM   22  N9  PAP A 125      42.072  -7.914  29.776  1.00 29.22    -0.270 N 
HETATM   23  C4  PAP A 125      41.917  -6.503  29.757  1.00 29.28     0.170 A 
HETATM   24  N3  PAP A 125      41.054  -5.695  30.471  1.00 29.66    -0.205 NA
HETATM   25  C5  PAP A 125      42.839  -6.050  28.820  1.00 29.93     0.155 A 
HETATM   26  C2  PAP A 125      41.219  -4.396  30.125  1.00 28.29     0.202 A 
HETATM   27  N1  PAP A 125      42.051  -3.816  29.247  1.00 27.66    -0.202 NA
HETATM   28  C6  PAP A 125      42.910  -4.614  28.560  1.00 28.82     0.206 A 
HETATM   29  N6  PAP A 125      43.827  -4.072  27.736  1.00 26.39    -0.125 N 
HETATM   30  N7  PAP A 125      43.551  -7.162  28.266  1.00 30.19    -0.219 NA
HETATM   31  C8  PAP A 125      43.056  -8.205  28.865  1.00 28.80     0.182 A 
ENDBRANCH   6  22
TORSDOF 8
ENDMDL
MODEL 3
REMARK VINA RESULT:    -5.738      1.081      2.183
REMARK INTER + INTRA:          -9.865
REMARK INTER:                  -8.232
REMARK INTRA:                  -1.632
REMARK UNBOUND:                -1.443
REMARK  8 active torsions:
REMARK  status: ('A' for Active; 'I' for Inactive)
REMARK    1  A    between atoms: P_1  and  O3'_9 
REMARK    2  A    between atoms: PA_2  and  O5'_5 
REMARK    3  A    between atoms: PA_2  and  O3A_23 
REMARK    4  A    between atoms: PB_3  and  O3A_23 
REMARK    5  A    between atoms: C5'_4  and  O5'_5 
REMARK    6  A    between atoms: C5'_4  and  C4'_6 
REMARK    7  A    between atoms: C3'_8  and  O3'_9 
REMARK    8  A    between atoms: C1'_12  and  N9_31 
ROOT
HETATM    1  C4' PAP A 125      41.846 -10.296  32.307  1.00 30.66     0.178 C 
HETATM    2  O4' PAP A 125      42.209  -9.052  31.698  1.00 30.64    -0.331 OA
HETATM    3  C3' PAP A 125      40.993 -11.071  31.265  1.00 32.01     0.192 C 
HETATM    4  C2' PAP A 125      41.417 -10.383  29.973  1.00 31.03     0.231 C 
HETATM    5  O2' PAP A 125      40.432 -10.583  28.935  1.00 29.14    -0.216 OA
HETATM    6  C1' PAP A 125      41.405  -8.947  30.533  1.00 29.59     0.241 C 
ENDROOT
BRANCH   1   7
HETATM    7  C5' PAP A 125      43.140 -10.980  32.638  1.00 29.07     0.187 C 
BRANCH   7   8
HETATM    8  O5' PAP A 125      44.150 -10.198  32.029  1.00 30.13    -0.268 OA
BRANCH   8   9
HETATM    9  PA  PAP A 125      45.278 -10.886  31.077  1.00 31.22     0.419 P 
HETATM   10  O1A PAP A 125      46.438 -11.217  31.955  1.00 32.37    -0.624 OA
HETATM   11  O2A PAP A 125      44.643 -11.982  30.296  1.00 32.57    -0.624 OA
BRANCH   9  12
HETATM   12  O3A PAP A 125      45.861  -9.596  30.101  1.00 29.92    -0.173 OA
BRANCH  12  13
HETATM   13  PB  PAP A 125      47.009  -9.366  28.944  1.00 26.94     0.431 P 
HETATM   14  O1B PAP A 125      46.842  -7.966  28.503  1.00 24.20    -0.616 OA
HETATM   15  O2B PAP A 125      48.295  -9.646  29.668  1.00 26.86    -0.616 OA
HETATM   16  O3B PAP A 125      46.698 -10.363  27.893  1.00 28.16    -0.616 OA
ENDBRANCH  12  13
ENDBRANCH   9  12
ENDBRANCH   8   9
ENDBRANCH   7   8
ENDBRANCH   1   7
BRANCH   3  17
HETATM   17  O3' PAP A 125      39.579 -10.855  31.542  1.00 36.20    -0.261 OA
BRANCH  17  18
HETATM   18  P   PAP A 125      38.586 -12.139  32.070  1.00 39.68     0.423 P 
HETATM   19  O1  PAP A 125      38.300 -12.814  30.779  1.00 40.50    -0.617 OA
HETATM   20  O2  PAP A 125      39.482 -12.886  32.988  1.00 39.38    -0.617 OA
HETATM   21  O3  PAP A 125      37.427 -11.509  32.774  1.00 40.59    -0.617 OA
ENDBRANCH  17  18
ENDBRANCH   3  17
BRANCH   6  22
HETATM   22  N9  PAP A 125      42.075  -7.908  29.719  1.00 29.22    -0.270 N 
HETATM   23  C4  PAP A 125      41.935  -6.495  29.710  1.00 29.28     0.170 A 
HETATM   24  N3  PAP A 125      41.107  -5.680  30.456  1.00 29.66    -0.205 NA
HETATM   25  C5  PAP A 125      42.830  -6.048  28.744  1.00 29.93     0.155 A 
HETATM   26  C2  PAP A 125      41.273  -4.382  30.109  1.00 28.29     0.202 A 
HETATM   27  N1  PAP A 125      42.082  -3.807  29.205  1.00 27.66    -0.202 NA
HETATM   28  C6  PAP A 125      42.908  -4.613  28.487  1.00 28.82     0.206 A 
HETATM   29  N6  PAP A 125      43.802  -4.077  27.634  1.00 26.39    -0.125 N 
HETATM   30  N7  PAP A 125      43.511  -7.166  28.162  1.00 30.19    -0.219 NA
HETATM   31  C8  PAP A 125      43.025  -8.206  28.773  1.00 28.80     0.182 A 
ENDBRANCH   6  22
TORSDOF 8
ENDMDL
MODEL 4
REMARK VINA RESULT:    -5.585     12.087     13.704
REMARK INTER + INTRA:          -9.640
REMARK INTER:                  -8.514
REMARK INTRA:                  -1.126
REMARK UNBOUND:                -1.443
REMARK  8 active torsions:
REMARK  status: ('A' for Active; 'I' for Inactive)
REMARK    1  A    between atoms: P_1  and  O3'_9 
REMARK    2  A    between atoms: PA_2  and  O5'_5 
REMARK    3  A    between atoms: PA_2  and  O3A_23 
REMARK    4  A    between atoms: PB_3  and  O3A_23 
REMARK    5  A    between atoms: C5'_4  and  O5'_5 
REMARK    6  A    between atoms: C5'_4  and  C4'_6 
REMARK    7  A    between atoms: C3'_8  and  O3'_9 
REMARK    8  A    between atoms: C1'_12  and  N9_31 
ROOT
HETATM    1  C4' PAP A 125      43.151  -4.340  40.960  1.00 30.66     0.178 C 
HETATM    2  O4' PAP A 125      44.500  -4.525  41.402  1.00 30.64    -0.331 OA
HETATM    3  C3' PAP A 125      42.440  -5.712  41.110  1.00 32.01     0.192 C 
HETATM    4  C2' PAP A 125      43.343  -6.398  42.128  1.00 31.03     0.231 C 
HETATM    5  O2' PAP A 125      43.182  -7.833  42.076  1.00 29.14    -0.216 OA
HETATM    6  C1' PAP A 125      44.677  -5.928  41.514  1.00 29.59     0.241 C 
ENDROOT
BRANCH   1   7
HETATM    7  C5' PAP A 125      42.575  -3.275  41.846  1.00 29.07     0.187 C 
BRANCH   7   8
HETATM    8  O5' PAP A 125      41.635  -2.583  41.047  1.00 30.13    -0.268 OA
BRANCH   8   9
HETATM    9  PA  PAP A 125      41.308  -1.011  41.314  1.00 31.22     0.419 P 
HETATM   10  O1A PAP A 125      42.551  -0.403  41.875  1.00 32.37    -0.624 OA
HETATM   11  O2A PAP A 125      40.728  -0.424  40.076  1.00 32.57    -0.624 OA
BRANCH   9  12
HETATM   12  O3A PAP A 125      40.221  -1.016  42.646  1.00 29.92    -0.173 OA
BRANCH  12  13
HETATM   13  PB  PAP A 125      40.277  -0.735  44.267  1.00 26.94     0.431 P 
HETATM   14  O1B PAP A 125      38.876  -0.826  44.726  1.00 24.20    -0.616 OA
HETATM   15  O2B PAP A 125      41.176  -1.824  44.779  1.00 26.86    -0.616 OA
HETATM   16  O3B PAP A 125      40.861   0.620  44.400  1.00 28.16    -0.616 OA
ENDBRANCH  12  13
ENDBRANCH   9  12
ENDBRANCH   8   9
ENDBRANCH   7   8
ENDBRANCH   1   7
BRANCH   3  17
HETATM   17  O3' PAP A 125      42.457  -6.409  39.831  1.00 36.20    -0.261 OA
BRANCH  17  18
HETATM   18  P   PAP A 125      41.048  -7.156  39.223  1.00 39.68     0.423 P 
HETATM   19  O1  PAP A 125      40.965  -6.533  37.878  1.00 40.50    -0.617 OA
HETATM   20  O2  PAP A 125      41.415  -8.594  39.231  1.00 39.38    -0.617 OA
HETATM   21  O3  PAP A 125      39.952  -6.830  40.187  1.00 40.59    -0.617 OA
ENDBRANCH  17  18
ENDBRANCH   3  17
BRANCH   6  22
HETATM   22  N9  PAP A 125      45.887  -6.079  42.354  1.00 29.22    -0.270 N 
HETATM   23  C4  PAP A 125      47.217  -6.448  42.018  1.00 29.28     0.170 A 
HETATM   24  N3  PAP A 125      47.759  -6.796  40.797  1.00 29.66    -0.205 NA
HETATM   25  C5  PAP A 125      47.918  -6.406  43.218  1.00 29.93     0.155 A 
HETATM   26  C2  PAP A 125      49.071  -7.106  40.927  1.00 28.29     0.202 A 
HETATM   27  N1  PAP A 125      49.871  -7.119  42.004  1.00 27.66    -0.202 NA
HETATM   28  C6  PAP A 125      49.336  -6.757  43.200  1.00 28.82     0.206 A 
HETATM   29  N6  PAP A 125      50.119  -6.665  44.292  1.00 26.39    -0.125 N 
HETATM   30  N7  PAP A 125      47.038  -6.021  44.279  1.00 30.19    -0.219 NA
HETATM   31  C8  PAP A 125      45.883  -5.848  43.707  1.00 28.80     0.182 A 
ENDBRANCH   6  22
TORSDOF 8
ENDMDL
MODEL 5
REMARK VINA RESULT:    -5.507     18.777     20.734
REMARK INTER + INTRA:          -9.525
REMARK INTER:                  -8.173
REMARK INTRA:                  -1.352
REMARK UNBOUND:                -1.443
REMARK  8 active torsions:
REMARK  status: ('A' for Active; 'I' for Inactive)
REMARK    1  A    between atoms: P_1  and  O3'_9 
REMARK    2  A    between atoms: PA_2  and  O5'_5 
REMARK    3  A    between atoms: PA_2  and  O3A_23 
REMARK    4  A    between atoms: PB_3  and  O3A_23 
REMARK    5  A    between atoms: C5'_4  and  O5'_5 
REMARK    6  A    between atoms: C5'_4  and  C4'_6 
REMARK    7  A    between atoms: C3'_8  and  O3'_9 
REMARK    8  A    between atoms: C1'_12  and  N9_31 
ROOT
HETATM    1  C4' PAP A 125      41.370   3.650  43.900  1.00 30.66     0.178 C 
HETATM    2  O4' PAP A 125      42.207   4.792  43.693  1.00 30.64    -0.331 OA
HETATM    3  C3' PAP A 125      42.122   2.718  44.890  1.00 32.01     0.192 C 
HETATM    4  C2' PAP A 125      43.083   3.704  45.543  1.00 31.03     0.231 C 
HETATM    5  O2' PAP A 125      44.203   3.014  46.140  1.00 29.14    -0.216 OA
HETATM    6  C1' PAP A 125      43.466   4.450  44.249  1.00 29.59     0.241 C 
ENDROOT
BRANCH   1   7
HETATM    7  C5' PAP A 125      40.081   4.184  44.455  1.00 29.07     0.187 C 
BRANCH   7   8
HETATM    8  O5' PAP A 125      40.006   5.526  44.015  1.00 30.13    -0.268 OA
BRANCH   8   9
HETATM    9  PA  PAP A 125      39.529   6.710  45.026  1.00 31.22     0.419 P 
HETATM   10  O1A PAP A 125      38.091   6.455  45.338  1.00 32.37    -0.624 OA
HETATM   11  O2A PAP A 125      40.495   6.796  46.155  1.00 32.57    -0.624 OA
BRANCH   9  12
HETATM   12  O3A PAP A 125      39.489   8.123  44.046  1.00 29.92    -0.173 OA
BRANCH  12  13
HETATM   13  PB  PAP A 125      38.829   8.595  42.614  1.00 26.94     0.431 P 
HETATM   14  O1B PAP A 125      39.351   9.956  42.376  1.00 24.20    -0.616 OA
HETATM   15  O2B PAP A 125      39.318   7.557  41.646  1.00 26.86    -0.616 OA
HETATM   16  O3B PAP A 125      37.364   8.549  42.835  1.00 28.16    -0.616 OA
ENDBRANCH  12  13
ENDBRANCH   9  12
ENDBRANCH   8   9
ENDBRANCH   7   8
ENDBRANCH   1   7
BRANCH   3  17
HETATM   17  O3' PAP A 125      42.839   1.695  44.141  1.00 36.20    -0.261 OA
BRANCH  17  18
HETATM   18  P   PAP A 125      42.195   0.123  43.970  1.00 39.68     0.423 P 
HETATM   19  O1  PAP A 125      40.825   0.328  44.503  1.00 40.50    -0.617 OA
HETATM   20  O2  PAP A 125      42.275  -0.102  42.505  1.00 39.38    -0.617 OA
HETATM   21  O3  PAP A 125      43.094  -0.783  44.747  1.00 40.59    -0.617 OA
ENDBRANCH  17  18
ENDBRANCH   3  17
BRANCH   6  22
HETATM   22  N9  PAP A 125      44.161   5.748  44.409  1.00 29.22    -0.270 N 
HETATM   23  C4  PAP A 125      45.527   6.051  44.652  1.00 29.28     0.170 A 
HETATM   24  N3  PAP A 125      46.605   5.207  44.832  1.00 29.66    -0.205 NA
HETATM   25  C5  PAP A 125      45.588   7.440  44.693  1.00 29.93     0.155 A 
HETATM   26  C2  PAP A 125      47.734   5.917  45.069  1.00 28.29     0.202 A 
HETATM   27  N1  PAP A 125      47.944   7.240  45.143  1.00 27.66    -0.202 NA
HETATM   28  C6  PAP A 125      46.883   8.066  44.947  1.00 28.82     0.206 A 
HETATM   29  N6  PAP A 125      47.059   9.401  44.921  1.00 26.39    -0.125 N 
HETATM   30  N7  PAP A 125      44.282   7.986  44.482  1.00 30.19    -0.219 NA
HETATM   31  C8  PAP A 125      43.510   6.953  44.325  1.00 28.80     0.182 A 
ENDBRANCH   6  22
TORSDOF 8
ENDMDL
MODEL 6
REMARK VINA RESULT:    -5.413      2.710      5.621
REMARK INTER + INTRA:          -9.387
REMARK INTER:                  -7.713
REMARK INTRA:                  -1.674
REMARK UNBOUND:                -1.443
REMARK  8 active torsions:
REMARK  status: ('A' for Active; 'I' for Inactive)
REMARK    1  A    between atoms: P_1  and  O3'_9 
REMARK    2  A    between atoms: PA_2  and  O5'_5 
REMARK    3  A    between atoms: PA_2  and  O3A_23 
REMARK    4  A    between atoms: PB_3  and  O3A_23 
REMARK    5  A    between atoms: C5'_4  and  O5'_5 
REMARK    6  A    between atoms: C5'_4  and  C4'_6 
REMARK    7  A    between atoms: C3'_8  and  O3'_9 
REMARK    8  A    between atoms: C1'_12  and  N9_31 
ROOT
HETATM    1  C4' PAP A 125      40.450 -10.757  31.017  1.00 30.66     0.178 C 
HETATM    2  O4' PAP A 125      40.411  -9.415  30.522  1.00 30.64    -0.331 OA
HETATM    3  C3' PAP A 125      41.895 -11.277  30.786  1.00 32.01     0.192 C 
HETATM    4  C2' PAP A 125      42.659  -9.964  30.659  1.00 31.03     0.231 C 
HETATM    5  O2' PAP A 125      43.914 -10.163  29.971  1.00 29.14    -0.216 OA
HETATM    6  C1' PAP A 125      41.612  -9.243  29.786  1.00 29.59     0.241 C 
ENDROOT
BRANCH   1   7
HETATM    7  C5' PAP A 125      40.079 -10.666  32.469  1.00 29.07     0.187 C 
BRANCH   7   8
HETATM    8  O5' PAP A 125      39.953 -12.002  32.914  1.00 30.13    -0.268 OA
BRANCH   8   9
HETATM    9  PA  PAP A 125      38.485 -12.672  33.139  1.00 31.22     0.419 P 
HETATM   10  O1A PAP A 125      38.449 -13.163  34.548  1.00 32.37    -0.624 OA
HETATM   11  O2A PAP A 125      37.444 -11.704  32.699  1.00 32.57    -0.624 OA
BRANCH   9  12
HETATM   12  O3A PAP A 125      38.522 -14.114  32.204  1.00 29.92    -0.173 OA
BRANCH  12  13
HETATM   13  PB  PAP A 125      38.218 -14.569  30.652  1.00 26.94     0.431 P 
HETATM   14  O1B PAP A 125      38.646 -13.426  29.821  1.00 24.20    -0.616 OA
HETATM   15  O2B PAP A 125      39.047 -15.811  30.484  1.00 26.86    -0.616 OA
HETATM   16  O3B PAP A 125      36.759 -14.827  30.607  1.00 28.16    -0.616 OA
ENDBRANCH  12  13
ENDBRANCH   9  12
ENDBRANCH   8   9
ENDBRANCH   7   8
ENDBRANCH   1   7
BRANCH   3  17
HETATM   17  O3' PAP A 125      41.942 -12.041  29.547  1.00 36.20    -0.261 OA
BRANCH  17  18
HETATM   18  P   PAP A 125      42.374 -13.693  29.554  1.00 39.68     0.423 P 
HETATM   19  O1  PAP A 125      41.945 -14.083  30.920  1.00 40.50    -0.617 OA
HETATM   20  O2  PAP A 125      41.550 -14.247  28.451  1.00 39.38    -0.617 OA
HETATM   21  O3  PAP A 125      43.840 -13.742  29.266  1.00 40.59    -0.617 OA
ENDBRANCH  17  18
ENDBRANCH   3  17
BRANCH   6  22
HETATM   22  N9  PAP A 125      41.753  -7.775  29.652  1.00 29.22    -0.270 N 
HETATM   23  C4  PAP A 125      42.669  -6.990  28.901  1.00 29.28     0.170 A 
HETATM   24  N3  PAP A 125      43.714  -7.381  28.089  1.00 29.66    -0.205 NA
HETATM   25  C5  PAP A 125      42.309  -5.672  29.157  1.00 29.93     0.155 A 
HETATM   26  C2  PAP A 125      44.356  -6.302  27.583  1.00 28.29     0.202 A 
HETATM   27  N1  PAP A 125      44.133  -4.988  27.741  1.00 27.66    -0.202 NA
HETATM   28  C6  PAP A 125      43.090  -4.610  28.528  1.00 28.82     0.206 A 
HETATM   29  N6  PAP A 125      42.769  -3.308  28.645  1.00 26.39    -0.125 N 
HETATM   30  N7  PAP A 125      41.193  -5.640  30.052  1.00 30.19    -0.219 NA
HETATM   31  C8  PAP A 125      40.926  -6.889  30.295  1.00 28.80     0.182 A 
ENDBRANCH   6  22
TORSDOF 8
ENDMDL
MODEL 7
REMARK VINA RESULT:    -5.365     15.526     17.398
REMARK INTER + INTRA:          -9.316
REMARK INTER:                  -8.256
REMARK INTRA:                  -1.060
REMARK UNBOUND:                -1.443
REMARK  8 active torsions:
REMARK  status: ('A' for Active; 'I' for Inactive)
REMARK    1  A    between atoms: P_1  and  O3'_9 
REMARK    2  A    between atoms: PA_2  and  O5'_5 
REMARK    3  A    between atoms: PA_2  and  O3A_23 
REMARK    4  A    between atoms: PB_3  and  O3A_23 
REMARK    5  A    between atoms: C5'_4  and  O5'_5 
REMARK    6  A    between atoms: C5'_4  and  C4'_6 
REMARK    7  A    between atoms: C3'_8  and  O3'_9 
REMARK    8  A    between atoms: C1'_12  and  N9_31 
ROOT
HETATM    1  C4' PAP A 125      41.206   0.744  45.456  1.00 30.66     0.178 C 
HETATM    2  O4' PAP A 125      41.878  -0.155  44.568  1.00 30.64    -0.331 OA
HETATM    3  C3' PAP A 125      40.061   1.404  44.641  1.00 32.01     0.192 C 
HETATM    4  C2' PAP A 125      39.889   0.396  43.512  1.00 31.03     0.231 C 
HETATM    5  O2' PAP A 125      39.235   1.001  42.375  1.00 29.14    -0.216 OA
HETATM    6  C1' PAP A 125      41.393   0.154  43.271  1.00 29.59     0.241 C 
ENDROOT
BRANCH   1   7
HETATM    7  C5' PAP A 125      40.712  -0.101  46.594  1.00 29.07     0.187 C 
BRANCH   7   8
HETATM    8  O5' PAP A 125      39.309   0.076  46.617  1.00 30.13    -0.268 OA
BRANCH   8   9
HETATM    9  PA  PAP A 125      38.322  -1.142  47.058  1.00 31.22     0.419 P 
HETATM   10  O1A PAP A 125      39.189  -2.333  47.296  1.00 32.37    -0.624 OA
HETATM   11  O2A PAP A 125      37.444  -0.671  48.164  1.00 32.57    -0.624 OA
BRANCH   9  12
HETATM   12  O3A PAP A 125      37.463  -1.542  45.623  1.00 29.92    -0.173 OA
BRANCH  12  13
HETATM   13  PB  PAP A 125      36.279  -0.886  44.687  1.00 26.94     0.431 P 
HETATM   14  O1B PAP A 125      36.570   0.562  44.651  1.00 24.20    -0.616 OA
HETATM   15  O2B PAP A 125      36.443  -1.591  43.371  1.00 26.86    -0.616 OA
HETATM   16  O3B PAP A 125      35.013  -1.223  45.380  1.00 28.16    -0.616 OA
ENDBRANCH  12  13
ENDBRANCH   9  12
ENDBRANCH   8   9
ENDBRANCH   7   8
ENDBRANCH   1   7
BRANCH   3  17
HETATM   17  O3' PAP A 125      40.507   2.695  44.137  1.00 36.20    -0.261 OA
BRANCH  17  18
HETATM   18  P   PAP A 125      39.915   4.149  44.808  1.00 39.68     0.423 P 
HETATM   19  O1  PAP A 125      40.782   4.273  46.006  1.00 40.50    -0.617 OA
HETATM   20  O2  PAP A 125      40.182   5.135  43.730  1.00 39.38    -0.617 OA
HETATM   21  O3  PAP A 125      38.455   3.933  45.050  1.00 40.59    -0.617 OA
ENDBRANCH  17  18
ENDBRANCH   3  17
BRANCH   6  22
HETATM   22  N9  PAP A 125      41.756  -1.026  42.453  1.00 29.22    -0.270 N 
HETATM   23  C4  PAP A 125      42.261  -2.300  42.826  1.00 29.28     0.170 A 
HETATM   24  N3  PAP A 125      42.582  -2.797  44.073  1.00 29.66    -0.205 NA
HETATM   25  C5  PAP A 125      42.398  -2.999  41.632  1.00 29.93     0.155 A 
HETATM   26  C2  PAP A 125      43.063  -4.059  43.976  1.00 28.29     0.202 A 
HETATM   27  N1  PAP A 125      43.255  -4.850  42.910  1.00 27.66    -0.202 NA
HETATM   28  C6  PAP A 125      42.921  -4.361  41.686  1.00 28.82     0.206 A 
HETATM   29  N6  PAP A 125      43.009  -5.147  40.596  1.00 26.39    -0.125 N 
HETATM   30  N7  PAP A 125      41.987  -2.171  40.538  1.00 30.19    -0.219 NA
HETATM   31  C8  PAP A 125      41.629  -1.048  41.087  1.00 28.80     0.182 A 
ENDBRANCH   6  22
TORSDOF 8
ENDMDL
MODEL 8
REMARK VINA RESULT:    -5.343     11.033     12.865
REMARK INTER + INTRA:          -9.285
REMARK INTER:                  -8.134
REMARK INTRA:                  -1.150
REMARK UNBOUND:                -1.443
REMARK  8 active torsions:
REMARK  status: ('A' for Active; 'I' for Inactive)
REMARK    1  A    between atoms: P_1  and  O3'_9 
REMARK    2  A    between atoms: PA_2  and  O5'_5 
REMARK    3  A    between atoms: PA_2  and  O3A_23 
REMARK    4  A    between atoms: PB_3  and  O3A_23 
REMARK    5  A    between atoms: C5'_4  and  O5'_5 
REMARK    6  A    between atoms: C5'_4  and  C4'_6 
REMARK    7  A    between atoms: C3'_8  and  O3'_9 
REMARK    8  A    between atoms: C1'_12  and  N9_31 
ROOT
HETATM    1  C4' PAP A 125      43.711  -5.530  41.263  1.00 30.66     0.178 C 
HETATM    2  O4' PAP A 125      45.131  -5.691  41.175  1.00 30.64    -0.331 OA
HETATM    3  C3' PAP A 125      43.082  -6.892  40.861  1.00 32.01     0.192 C 
HETATM    4  C2' PAP A 125      44.254  -7.836  41.100  1.00 31.03     0.231 C 
HETATM    5  O2' PAP A 125      44.087  -9.064  40.357  1.00 29.14    -0.216 OA
HETATM    6  C1' PAP A 125      45.336  -6.919  40.494  1.00 29.59     0.241 C 
ENDROOT
BRANCH   1   7
HETATM    7  C5' PAP A 125      43.432  -5.147  42.687  1.00 29.07     0.187 C 
BRANCH   7   8
HETATM    8  O5' PAP A 125      43.458  -3.733  42.712  1.00 30.13    -0.268 OA
BRANCH   8   9
HETATM    9  PA  PAP A 125      43.124  -2.916  44.081  1.00 31.22     0.419 P 
HETATM   10  O1A PAP A 125      42.508  -3.894  45.025  1.00 32.37    -0.624 OA
HETATM   11  O2A PAP A 125      44.347  -2.186  44.514  1.00 32.57    -0.624 OA
BRANCH   9  12
HETATM   12  O3A PAP A 125      41.819  -1.880  43.657  1.00 29.92    -0.173 OA
BRANCH  12  13
HETATM   13  PB  PAP A 125      41.591  -0.497  42.795  1.00 26.94     0.431 P 
HETATM   14  O1B PAP A 125      42.206  -0.754  41.477  1.00 24.20    -0.616 OA
HETATM   15  O2B PAP A 125      40.096  -0.345  42.769  1.00 26.86    -0.616 OA
HETATM   16  O3B PAP A 125      42.275   0.558  43.578  1.00 28.16    -0.616 OA
ENDBRANCH  12  13
ENDBRANCH   9  12
ENDBRANCH   8   9
ENDBRANCH   7   8
ENDBRANCH   1   7
BRANCH   3  17
HETATM   17  O3' PAP A 125      42.707  -6.855  39.454  1.00 36.20    -0.261 OA
BRANCH  17  18
HETATM   18  P   PAP A 125      41.081  -7.059  38.976  1.00 39.68     0.423 P 
HETATM   19  O1  PAP A 125      40.984  -8.540  38.956  1.00 40.50    -0.617 OA
HETATM   20  O2  PAP A 125      40.335  -6.392  40.073  1.00 39.38    -0.617 OA
HETATM   21  O3  PAP A 125      40.940  -6.355  37.665  1.00 40.59    -0.617 OA
ENDBRANCH  17  18
ENDBRANCH   3  17
BRANCH   6  22
HETATM   22  N9  PAP A 125      46.745  -7.268  40.785  1.00 29.22    -0.270 N 
HETATM   23  C4  PAP A 125      47.671  -8.077  40.074  1.00 29.28     0.170 A 
HETATM   24  N3  PAP A 125      47.510  -8.793  38.905  1.00 29.66    -0.205 NA
HETATM   25  C5  PAP A 125      48.843  -8.026  40.821  1.00 29.93     0.155 A 
HETATM   26  C2  PAP A 125      48.648  -9.455  38.588  1.00 28.29     0.202 A 
HETATM   27  N1  PAP A 125      49.838  -9.508  39.205  1.00 27.66    -0.202 NA
HETATM   28  C6  PAP A 125      49.997  -8.786  40.346  1.00 28.82     0.206 A 
HETATM   29  N6  PAP A 125      51.198  -8.733  40.952  1.00 26.39    -0.125 N 
HETATM   30  N7  PAP A 125      48.645  -7.203  41.975  1.00 30.19    -0.219 NA
HETATM   31  C8  PAP A 125      47.412  -6.799  41.889  1.00 28.80     0.182 A 
ENDBRANCH   6  22
TORSDOF 8
ENDMDL
MODEL 9
REMARK VINA RESULT:    -5.338      3.034      5.102
REMARK INTER + INTRA:          -9.277
REMARK INTER:                  -8.032
REMARK INTRA:                  -1.245
REMARK UNBOUND:                -1.443
REMARK  8 active torsions:
REMARK  status: ('A' for Active; 'I' for Inactive)
REMARK    1  A    between atoms: P_1  and  O3'_9 
REMARK    2  A    between atoms: PA_2  and  O5'_5 
REMARK    3  A    between atoms: PA_2  and  O3A_23 
REMARK    4  A    between atoms: PB_3  and  O3A_23 
REMARK    5  A    between atoms: C5'_4  and  O5'_5 
REMARK    6  A    between atoms: C5'_4  and  C4'_6 
REMARK    7  A    between atoms: C3'_8  and  O3'_9 
REMARK    8  A    between atoms: C1'_12  and  N9_31 
ROOT
HETATM    1  C4' PAP A 125      40.425 -10.772  30.874  1.00 30.66     0.178 C 
HETATM    2  O4' PAP A 125      40.401  -9.390  30.502  1.00 30.64    -0.331 OA
HETATM    3  C3' PAP A 125      41.790 -11.339  30.398  1.00 32.01     0.192 C 
HETATM    4  C2' PAP A 125      42.608 -10.060  30.273  1.00 31.03     0.231 C 
HETATM    5  O2' PAP A 125      43.743 -10.257  29.400  1.00 29.14    -0.216 OA
HETATM    6  C1' PAP A 125      41.498  -9.212  29.620  1.00 29.59     0.241 C 
ENDROOT
BRANCH   1   7
HETATM    7  C5' PAP A 125      40.262 -10.794  32.366  1.00 29.07     0.187 C 
BRANCH   7   8
HETATM    8  O5' PAP A 125      39.942 -12.132  32.693  1.00 30.13    -0.268 OA
BRANCH   8   9
HETATM    9  PA  PAP A 125      38.392 -12.623  32.779  1.00 31.22     0.419 P 
HETATM   10  O1A PAP A 125      37.548 -11.394  32.704  1.00 32.37    -0.624 OA
HETATM   11  O2A PAP A 125      38.172 -13.696  31.771  1.00 32.57    -0.624 OA
BRANCH   9  12
HETATM   12  O3A PAP A 125      38.197 -13.154  34.402  1.00 29.92    -0.173 OA
BRANCH  12  13
HETATM   13  PB  PAP A 125      39.153 -13.654  35.645  1.00 26.94     0.431 P 
HETATM   14  O1B PAP A 125      38.291 -13.606  36.843  1.00 24.20    -0.616 OA
HETATM   15  O2B PAP A 125      39.572 -15.035  35.229  1.00 26.86    -0.616 OA
HETATM   16  O3B PAP A 125      40.274 -12.685  35.678  1.00 28.16    -0.616 OA
ENDBRANCH  12  13
ENDBRANCH   9  12
ENDBRANCH   8   9
ENDBRANCH   7   8
ENDBRANCH   1   7
BRANCH   3  17
HETATM   17  O3' PAP A 125      41.620 -11.989  29.107  1.00 36.20    -0.261 OA
BRANCH  17  18
HETATM   18  P   PAP A 125      41.082 -13.607  29.005  1.00 39.68     0.423 P 
HETATM   19  O1  PAP A 125      39.689 -13.404  28.534  1.00 40.50    -0.617 OA
HETATM   20  O2  PAP A 125      42.008 -14.193  28.004  1.00 39.38    -0.617 OA
HETATM   21  O3  PAP A 125      41.255 -14.191  30.370  1.00 40.59    -0.617 OA
ENDBRANCH  17  18
ENDBRANCH   3  17
BRANCH   6  22
HETATM   22  N9  PAP A 125      41.710  -7.747  29.589  1.00 29.22    -0.270 N 
HETATM   23  C4  PAP A 125      42.632  -6.952  28.858  1.00 29.28     0.170 A 
HETATM   24  N3  PAP A 125      43.621  -7.330  27.972  1.00 29.66    -0.205 NA
HETATM   25  C5  PAP A 125      42.353  -5.641  29.227  1.00 29.93     0.155 A 
HETATM   26  C2  PAP A 125      44.296  -6.247  27.518  1.00 28.29     0.202 A 
HETATM   27  N1  PAP A 125      44.148  -4.940  27.784  1.00 27.66    -0.202 NA
HETATM   28  C6  PAP A 125      43.161  -4.573  28.643  1.00 28.82     0.206 A 
HETATM   29  N6  PAP A 125      42.912  -3.270  28.873  1.00 26.39    -0.125 N 
HETATM   30  N7  PAP A 125      41.278  -5.624  30.173  1.00 30.19    -0.219 NA
HETATM   31  C8  PAP A 125      40.957  -6.873  30.335  1.00 28.80     0.182 A 
ENDBRANCH   6  22
TORSDOF 8
ENDMDL
