MODEL 1
REMARK VINA RESULT:    -6.755      0.000      0.000
REMARK INTER + INTRA:         -11.532
REMARK INTER:                  -9.914
REMARK INTRA:                  -1.619
REMARK UNBOUND:                -1.619
REMARK  8 active torsions:
REMARK  status: ('A' for Active; 'I' for Inactive)
REMARK    1  A    between atoms: P_1  and  O3'_9 
REMARK    2  A    between atoms: PA_2  and  O5'_5 
REMARK    3  A    between atoms: PA_2  and  O3A_23 
REMARK    4  A    between atoms: PB_3  and  O3A_23 
REMARK    5  A    between atoms: C5'_4  and  O5'_5 
REMARK    6  A    between atoms: C5'_4  and  C4'_6 
REMARK    7  A    between atoms: C3'_8  and  O3'_9 
REMARK    8  A    between atoms: C1'_12  and  N9_31 
ROOT
HETATM    1  C4' PAP A 125      36.710   4.920  24.236  1.00 30.66     0.178 C 
HETATM    2  O4' PAP A 125      37.053   3.565  24.543  1.00 30.64    -0.331 OA
HETATM    3  C3' PAP A 125      37.315   5.229  22.840  1.00 32.01     0.192 C 
HETATM    4  C2' PAP A 125      37.489   3.821  22.281  1.00 31.03     0.231 C 
HETATM    5  O2' PAP A 125      38.462   3.807  21.214  1.00 29.14    -0.216 OA
HETATM    6  C1' PAP A 125      38.025   3.188  23.581  1.00 29.59     0.241 C 
ENDROOT
BRANCH   1   7
HETATM    7  C5' PAP A 125      35.209   4.975  24.256  1.00 29.07     0.187 C 
BRANCH   7   8
HETATM    8  O5' PAP A 125      34.858   6.049  23.406  1.00 30.13    -0.268 OA
BRANCH   8   9
HETATM    9  PA  PAP A 125      34.046   7.338  23.982  1.00 31.22     0.419 P 
HETATM   10  O1A PAP A 125      33.918   8.305  22.852  1.00 32.37    -0.624 OA
HETATM   11  O2A PAP A 125      32.805   6.863  24.652  1.00 32.57    -0.624 OA
BRANCH   9  12
HETATM   12  O3A PAP A 125      35.154   8.103  25.050  1.00 29.92    -0.173 OA
BRANCH  12  13
HETATM   13  PB  PAP A 125      35.336   9.571  25.772  1.00 26.94     0.431 P 
HETATM   14  O1B PAP A 125      36.303  10.302  24.928  1.00 24.20    -0.616 OA
HETATM   15  O2B PAP A 125      33.945  10.138  25.765  1.00 26.86    -0.616 OA
HETATM   16  O3B PAP A 125      35.840   9.269  27.132  1.00 28.16    -0.616 OA
ENDBRANCH  12  13
ENDBRANCH   9  12
ENDBRANCH   8   9
ENDBRANCH   7   8
ENDBRANCH   1   7
BRANCH   3  17
HETATM   17  O3' PAP A 125      38.599   5.896  23.006  1.00 36.20    -0.261 OA
BRANCH  17  18
HETATM   18  P   PAP A 125      38.683   7.586  23.234  1.00 39.68     0.423 P 
HETATM   19  O1  PAP A 125      39.980   7.887  22.579  1.00 40.50    -0.617 OA
HETATM   20  O2  PAP A 125      37.481   8.071  22.509  1.00 39.38    -0.617 OA
HETATM   21  O3  PAP A 125      38.602   7.813  24.710  1.00 40.59    -0.617 OA
ENDBRANCH  17  18
ENDBRANCH   3  17
BRANCH   6  22
HETATM   22  N9  PAP A 125      38.047   1.709  23.642  1.00 29.22    -0.270 N 
HETATM   23  C4  PAP A 125      38.894   0.761  23.008  1.00 29.28     0.170 A 
HETATM   24  N3  PAP A 125      39.939   0.955  22.127  1.00 29.66    -0.205 NA
HETATM   25  C5  PAP A 125      38.447  -0.478  23.452  1.00 29.93     0.155 A 
HETATM   26  C2  PAP A 125      40.464  -0.231  21.739  1.00 28.29     0.202 A 
HETATM   27  N1  PAP A 125      40.140  -1.490  22.072  1.00 27.66    -0.202 NA
HETATM   28  C6  PAP A 125      39.122  -1.673  22.954  1.00 28.82     0.206 A 
HETATM   29  N6  PAP A 125      38.818  -2.911  23.390  1.00 26.39    -0.125 N 
HETATM   30  N7  PAP A 125      37.340  -0.302  24.343  1.00 30.19    -0.219 NA
HETATM   31  C8  PAP A 125      37.165   0.985  24.405  1.00 28.80     0.182 A 
ENDBRANCH   6  22
TORSDOF 8
ENDMDL
MODEL 2
REMARK VINA RESULT:    -6.714      2.856      4.028
REMARK INTER + INTRA:         -11.473
REMARK INTER:                 -10.535
REMARK INTRA:                  -0.938
REMARK UNBOUND:                -1.619
REMARK  8 active torsions:
REMARK  status: ('A' for Active; 'I' for Inactive)
REMARK    1  A    between atoms: P_1  and  O3'_9 
REMARK    2  A    between atoms: PA_2  and  O5'_5 
REMARK    3  A    between atoms: PA_2  and  O3A_23 
REMARK    4  A    between atoms: PB_3  and  O3A_23 
REMARK    5  A    between atoms: C5'_4  and  O5'_5 
REMARK    6  A    between atoms: C5'_4  and  C4'_6 
REMARK    7  A    between atoms: C3'_8  and  O3'_9 
REMARK    8  A    between atoms: C1'_12  and  N9_31 
ROOT
HETATM    1  C4' PAP A 125      39.368   3.120  24.888  1.00 30.66     0.178 C 
HETATM    2  O4' PAP A 125      38.633   1.892  24.855  1.00 30.64    -0.331 OA
HETATM    3  C3' PAP A 125      40.549   2.961  23.893  1.00 32.01     0.192 C 
HETATM    4  C2' PAP A 125      40.034   1.832  23.009  1.00 31.03     0.231 C 
HETATM    5  O2' PAP A 125      41.123   1.178  22.320  1.00 29.14    -0.216 OA
HETATM    6  C1' PAP A 125      39.454   0.974  24.151  1.00 29.59     0.241 C 
ENDROOT
BRANCH   1   7
HETATM    7  C5' PAP A 125      38.394   4.189  24.485  1.00 29.07     0.187 C 
BRANCH   7   8
HETATM    8  O5' PAP A 125      37.301   4.061  25.373  1.00 30.13    -0.268 OA
BRANCH   8   9
HETATM    9  PA  PAP A 125      35.801   3.765  24.813  1.00 31.22     0.419 P 
HETATM   10  O1A PAP A 125      35.938   3.458  23.359  1.00 32.37    -0.624 OA
HETATM   11  O2A PAP A 125      35.152   2.754  25.693  1.00 32.57    -0.624 OA
BRANCH   9  12
HETATM   12  O3A PAP A 125      35.022   5.297  24.836  1.00 29.92    -0.173 OA
BRANCH  12  13
HETATM   13  PB  PAP A 125      34.927   6.631  23.876  1.00 26.94     0.431 P 
HETATM   14  O1B PAP A 125      35.696   6.291  22.661  1.00 24.20    -0.616 OA
HETATM   15  O2B PAP A 125      33.451   6.799  23.657  1.00 26.86    -0.616 OA
HETATM   16  O3B PAP A 125      35.530   7.722  24.677  1.00 28.16    -0.616 OA
ENDBRANCH  12  13
ENDBRANCH   9  12
ENDBRANCH   8   9
ENDBRANCH   7   8
ENDBRANCH   1   7
BRANCH   3  17
HETATM   17  O3' PAP A 125      41.745   2.562  24.621  1.00 36.20    -0.261 OA
BRANCH  17  18
HETATM   18  P   PAP A 125      42.473   3.613  25.752  1.00 39.68     0.423 P 
HETATM   19  O1  PAP A 125      41.830   3.153  27.008  1.00 40.50    -0.617 OA
HETATM   20  O2  PAP A 125      43.914   3.282  25.622  1.00 39.38    -0.617 OA
HETATM   21  O3  PAP A 125      42.153   5.002  25.298  1.00 40.59    -0.617 OA
ENDBRANCH  17  18
ENDBRANCH   3  17
BRANCH   6  22
HETATM   22  N9  PAP A 125      38.533  -0.119  23.763  1.00 29.22    -0.270 N 
HETATM   23  C4  PAP A 125      38.695  -1.529  23.785  1.00 29.28     0.170 A 
HETATM   24  N3  PAP A 125      39.784  -2.291  24.162  1.00 29.66    -0.205 NA
HETATM   25  C5  PAP A 125      37.490  -2.040  23.317  1.00 29.93     0.155 A 
HETATM   26  C2  PAP A 125      39.523  -3.610  24.001  1.00 28.29     0.202 A 
HETATM   27  N1  PAP A 125      38.426  -4.245  23.561  1.00 27.66    -0.202 NA
HETATM   28  C6  PAP A 125      37.352  -3.490  23.209  1.00 28.82     0.206 A 
HETATM   29  N6  PAP A 125      36.197  -4.083  22.848  1.00 26.39    -0.125 N 
HETATM   30  N7  PAP A 125      36.597  -0.965  23.008  1.00 30.19    -0.219 NA
HETATM   31  C8  PAP A 125      37.265   0.114  23.290  1.00 28.80     0.182 A 
ENDBRANCH   6  22
TORSDOF 8
ENDMDL
MODEL 3
REMARK VINA RESULT:    -6.625      5.808      9.174
REMARK INTER + INTRA:         -11.341
REMARK INTER:                  -9.841
REMARK INTRA:                  -1.500
REMARK UNBOUND:                -1.619
REMARK  8 active torsions:
REMARK  status: ('A' for Active; 'I' for Inactive)
REMARK    1  A    between atoms: P_1  and  O3'_9 
REMARK    2  A    between atoms: PA_2  and  O5'_5 
REMARK    3  A    between atoms: PA_2  and  O3A_23 
REMARK    4  A    between atoms: PB_3  and  O3A_23 
REMARK    5  A    between atoms: C5'_4  and  O5'_5 
REMARK    6  A    between atoms: C5'_4  and  C4'_6 
REMARK    7  A    between atoms: C3'_8  and  O3'_9 
REMARK    8  A    between atoms: C1'_12  and  N9_31 
ROOT
HETATM    1  C4' PAP A 125      37.001   7.072  24.395  1.00 30.66     0.178 C 
HETATM    2  O4' PAP A 125      36.648   8.259  25.113  1.00 30.64    -0.331 OA
HETATM    3  C3' PAP A 125      35.677   6.310  24.113  1.00 32.01     0.192 C 
HETATM    4  C2' PAP A 125      34.659   7.435  24.253  1.00 31.03     0.231 C 
HETATM    5  O2' PAP A 125      33.340   6.908  24.512  1.00 29.14    -0.216 OA
HETATM    6  C1' PAP A 125      35.294   8.084  25.499  1.00 29.59     0.241 C 
ENDROOT
BRANCH   1   7
HETATM    7  C5' PAP A 125      37.691   7.540  23.147  1.00 29.07     0.187 C 
BRANCH   7   8
HETATM    8  O5' PAP A 125      37.851   6.386  22.345  1.00 30.13    -0.268 OA
BRANCH   8   9
HETATM    9  PA  PAP A 125      39.327   5.753  22.078  1.00 31.22     0.419 P 
HETATM   10  O1A PAP A 125      39.501   5.678  20.598  1.00 32.37    -0.624 OA
HETATM   11  O2A PAP A 125      40.327   6.517  22.872  1.00 32.57    -0.624 OA
BRANCH   9  12
HETATM   12  O3A PAP A 125      39.182   4.107  22.555  1.00 29.92    -0.173 OA
BRANCH  12  13
HETATM   13  PB  PAP A 125      39.191   2.625  21.840  1.00 26.94     0.431 P 
HETATM   14  O1B PAP A 125      38.098   2.667  20.846  1.00 24.20    -0.616 OA
HETATM   15  O2B PAP A 125      40.570   2.531  21.251  1.00 26.86    -0.616 OA
HETATM   16  O3B PAP A 125      38.957   1.666  22.945  1.00 28.16    -0.616 OA
ENDBRANCH  12  13
ENDBRANCH   9  12
ENDBRANCH   8   9
ENDBRANCH   7   8
ENDBRANCH   1   7
BRANCH   3  17
HETATM   17  O3' PAP A 125      35.481   5.287  25.132  1.00 36.20    -0.261 OA
BRANCH  17  18
HETATM   18  P   PAP A 125      36.113   3.715  24.925  1.00 39.68     0.423 P 
HETATM   19  O1  PAP A 125      35.122   2.918  25.690  1.00 40.50    -0.617 OA
HETATM   20  O2  PAP A 125      36.065   3.537  23.452  1.00 39.38    -0.617 OA
HETATM   21  O3  PAP A 125      37.509   3.752  25.461  1.00 40.59    -0.617 OA
ENDBRANCH  17  18
ENDBRANCH   3  17
BRANCH   6  22
HETATM   22  N9  PAP A 125      34.834   9.448  25.848  1.00 29.22    -0.270 N 
HETATM   23  C4  PAP A 125      35.105  10.263  26.979  1.00 29.28     0.170 A 
HETATM   24  N3  PAP A 125      35.868  10.002  28.099  1.00 29.66    -0.205 NA
HETATM   25  C5  PAP A 125      34.408  11.444  26.748  1.00 29.93     0.155 A 
HETATM   26  C2  PAP A 125      35.836  11.050  28.955  1.00 28.29     0.202 A 
HETATM   27  N1  PAP A 125      35.213  12.236  28.875  1.00 27.66    -0.202 NA
HETATM   28  C6  PAP A 125      34.478  12.495  27.761  1.00 28.82     0.206 A 
HETATM   29  N6  PAP A 125      33.909  13.703  27.591  1.00 26.39    -0.125 N 
HETATM   30  N7  PAP A 125      33.716  11.361  25.498  1.00 30.19    -0.219 NA
HETATM   31  C8  PAP A 125      34.008  10.182  25.034  1.00 28.80     0.182 A 
ENDBRANCH   6  22
TORSDOF 8
ENDMDL
MODEL 4
REMARK VINA RESULT:    -6.463      2.854      4.287
REMARK INTER + INTRA:         -11.105
REMARK INTER:                 -10.031
REMARK INTRA:                  -1.073
REMARK UNBOUND:                -1.619
REMARK  8 active torsions:
REMARK  status: ('A' for Active; 'I' for Inactive)
REMARK    1  A    between atoms: P_1  and  O3'_9 
REMARK    2  A    between atoms: PA_2  and  O5'_5 
REMARK    3  A    between atoms: PA_2  and  O3A_23 
REMARK    4  A    between atoms: PB_3  and  O3A_23 
REMARK    5  A    between atoms: C5'_4  and  O5'_5 
REMARK    6  A    between atoms: C5'_4  and  C4'_6 
REMARK    7  A    between atoms: C3'_8  and  O3'_9 
REMARK    8  A    between atoms: C1'_12  and  N9_31 
ROOT
HETATM    1  C4' PAP A 125      38.482   2.249  24.127  1.00 30.66     0.178 C 
HETATM    2  O4' PAP A 125      37.828   0.976  24.099  1.00 30.64    -0.331 OA
HETATM    3  C3' PAP A 125      39.979   1.989  23.805  1.00 32.01     0.192 C 
HETATM    4  C2' PAP A 125      39.896   0.636  23.108  1.00 31.03     0.231 C 
HETATM    5  O2' PAP A 125      41.172  -0.040  23.140  1.00 29.14    -0.216 OA
HETATM    6  C1' PAP A 125      38.868   0.011  24.072  1.00 29.59     0.241 C 
ENDROOT
BRANCH   1   7
HETATM    7  C5' PAP A 125      37.791   3.085  23.089  1.00 29.07     0.187 C 
BRANCH   7   8
HETATM    8  O5' PAP A 125      36.485   3.303  23.586  1.00 30.13    -0.268 OA
BRANCH   8   9
HETATM    9  PA  PAP A 125      36.185   4.506  24.642  1.00 31.22     0.419 P 
HETATM   10  O1A PAP A 125      35.501   3.886  25.816  1.00 32.37    -0.624 OA
HETATM   11  O2A PAP A 125      37.443   5.266  24.875  1.00 32.57    -0.624 OA
BRANCH   9  12
HETATM   12  O3A PAP A 125      34.948   5.437  23.895  1.00 29.92    -0.173 OA
BRANCH  12  13
HETATM   13  PB  PAP A 125      34.442   7.004  23.879  1.00 26.94     0.431 P 
HETATM   14  O1B PAP A 125      35.058   7.623  25.070  1.00 24.20    -0.616 OA
HETATM   15  O2B PAP A 125      34.956   7.522  22.566  1.00 26.86    -0.616 OA
HETATM   16  O3B PAP A 125      32.964   6.929  23.942  1.00 28.16    -0.616 OA
ENDBRANCH  12  13
ENDBRANCH   9  12
ENDBRANCH   8   9
ENDBRANCH   7   8
ENDBRANCH   1   7
BRANCH   3  17
HETATM   17  O3' PAP A 125      40.733   1.899  25.048  1.00 36.20    -0.261 OA
BRANCH  17  18
HETATM   18  P   PAP A 125      41.879   3.094  25.465  1.00 39.68     0.423 P 
HETATM   19  O1  PAP A 125      41.331   4.266  24.737  1.00 40.50    -0.617 OA
HETATM   20  O2  PAP A 125      41.759   3.156  26.943  1.00 39.38    -0.617 OA
HETATM   21  O3  PAP A 125      43.206   2.576  25.011  1.00 40.59    -0.617 OA
ENDBRANCH  17  18
ENDBRANCH   3  17
BRANCH   6  22
HETATM   22  N9  PAP A 125      38.203  -1.233  23.622  1.00 29.22    -0.270 N 
HETATM   23  C4  PAP A 125      38.629  -2.587  23.666  1.00 29.28     0.170 A 
HETATM   24  N3  PAP A 125      39.810  -3.131  24.128  1.00 29.66    -0.205 NA
HETATM   25  C5  PAP A 125      37.581  -3.314  23.112  1.00 29.93     0.155 A 
HETATM   26  C2  PAP A 125      39.818  -4.475  23.957  1.00 28.29     0.202 A 
HETATM   27  N1  PAP A 125      38.897  -5.303  23.439  1.00 27.66    -0.202 NA
HETATM   28  C6  PAP A 125      37.729  -4.763  23.003  1.00 28.82     0.206 A 
HETATM   29  N6  PAP A 125      36.738  -5.561  22.560  1.00 26.39    -0.125 N 
HETATM   30  N7  PAP A 125      36.525  -2.425  22.730  1.00 30.19    -0.219 NA
HETATM   31  C8  PAP A 125      36.954  -1.241  23.054  1.00 28.80     0.182 A 
ENDBRANCH   6  22
TORSDOF 8
ENDMDL
MODEL 5
REMARK VINA RESULT:    -6.441      5.916      8.614
REMARK INTER + INTRA:         -11.072
REMARK INTER:                 -10.070
REMARK INTRA:                  -1.002
REMARK UNBOUND:                -1.619
REMARK  8 active torsions:
REMARK  status: ('A' for Active; 'I' for Inactive)
REMARK    1  A    between atoms: P_1  and  O3'_9 
REMARK    2  A    between atoms: PA_2  and  O5'_5 
REMARK    3  A    between atoms: PA_2  and  O3A_23 
REMARK    4  A    between atoms: PB_3  and  O3A_23 
REMARK    5  A    between atoms: C5'_4  and  O5'_5 
REMARK    6  A    between atoms: C5'_4  and  C4'_6 
REMARK    7  A    between atoms: C3'_8  and  O3'_9 
REMARK    8  A    between atoms: C1'_12  and  N9_31 
ROOT
HETATM    1  C4' PAP A 125      38.427   0.850  24.134  1.00 30.66     0.178 C 
HETATM    2  O4' PAP A 125      39.770   0.715  24.611  1.00 30.64    -0.331 OA
HETATM    3  C3' PAP A 125      38.128   2.372  24.064  1.00 32.01     0.192 C 
HETATM    4  C2' PAP A 125      39.540   2.943  24.014  1.00 31.03     0.231 C 
HETATM    5  O2' PAP A 125      39.552   4.328  24.426  1.00 29.14    -0.216 OA
HETATM    6  C1' PAP A 125      40.142   2.003  25.077  1.00 29.59     0.241 C 
ENDROOT
BRANCH   1   7
HETATM    7  C5' PAP A 125      38.403   0.180  22.791  1.00 29.07     0.187 C 
BRANCH   7   8
HETATM    8  O5' PAP A 125      38.724  -1.176  23.037  1.00 30.13    -0.268 OA
BRANCH   8   9
HETATM    9  PA  PAP A 125      37.552  -2.291  23.220  1.00 31.22     0.419 P 
HETATM   10  O1A PAP A 125      37.662  -2.804  24.618  1.00 32.37    -0.624 OA
HETATM   11  O2A PAP A 125      36.258  -1.704  22.780  1.00 32.57    -0.624 OA
BRANCH   9  12
HETATM   12  O3A PAP A 125      38.067  -3.619  22.257  1.00 29.92    -0.173 OA
BRANCH  12  13
HETATM   13  PB  PAP A 125      37.842  -5.249  22.207  1.00 26.94     0.431 P 
HETATM   14  O1B PAP A 125      39.069  -5.829  22.790  1.00 24.20    -0.616 OA
HETATM   15  O2B PAP A 125      36.601  -5.454  23.028  1.00 26.86    -0.616 OA
HETATM   16  O3B PAP A 125      37.656  -5.566  20.772  1.00 28.16    -0.616 OA
ENDBRANCH  12  13
ENDBRANCH   9  12
ENDBRANCH   8   9
ENDBRANCH   7   8
ENDBRANCH   1   7
BRANCH   3  17
HETATM   17  O3' PAP A 125      37.432   2.785  25.274  1.00 36.20    -0.261 OA
BRANCH  17  18
HETATM   18  P   PAP A 125      35.908   3.549  25.189  1.00 39.68     0.423 P 
HETATM   19  O1  PAP A 125      35.865   3.917  23.752  1.00 40.50    -0.617 OA
HETATM   20  O2  PAP A 125      34.978   2.464  25.592  1.00 39.38    -0.617 OA
HETATM   21  O3  PAP A 125      35.949   4.674  26.173  1.00 40.59    -0.617 OA
ENDBRANCH  17  18
ENDBRANCH   3  17
BRANCH   6  22
HETATM   22  N9  PAP A 125      41.619   1.949  25.162  1.00 29.22    -0.270 N 
HETATM   23  C4  PAP A 125      42.574   2.961  25.448  1.00 29.28     0.170 A 
HETATM   24  N3  PAP A 125      42.393   4.303  25.712  1.00 29.66    -0.205 NA
HETATM   25  C5  PAP A 125      43.807   2.319  25.399  1.00 29.93     0.155 A 
HETATM   26  C2  PAP A 125      43.584   4.918  25.905  1.00 28.29     0.202 A 
HETATM   27  N1  PAP A 125      44.837   4.440  25.884  1.00 27.66    -0.202 NA
HETATM   28  C6  PAP A 125      45.008   3.113  25.641  1.00 28.82     0.206 A 
HETATM   29  N6  PAP A 125      46.238   2.567  25.699  1.00 26.39    -0.125 N 
HETATM   30  N7  PAP A 125      43.618   0.935  25.085  1.00 30.19    -0.219 NA
HETATM   31  C8  PAP A 125      42.332   0.794  24.962  1.00 28.80     0.182 A 
ENDBRANCH   6  22
TORSDOF 8
ENDMDL
MODEL 6
REMARK VINA RESULT:    -6.438      5.180      8.199
REMARK INTER + INTRA:         -11.067
REMARK INTER:                  -9.698
REMARK INTRA:                  -1.370
REMARK UNBOUND:                -1.619
REMARK  8 active torsions:
REMARK  status: ('A' for Active; 'I' for Inactive)
REMARK    1  A    between atoms: P_1  and  O3'_9 
REMARK    2  A    between atoms: PA_2  and  O5'_5 
REMARK    3  A    between atoms: PA_2  and  O3A_23 
REMARK    4  A    between atoms: PB_3  and  O3A_23 
REMARK    5  A    between atoms: C5'_4  and  O5'_5 
REMARK    6  A    between atoms: C5'_4  and  C4'_6 
REMARK    7  A    between atoms: C3'_8  and  O3'_9 
REMARK    8  A    between atoms: C1'_12  and  N9_31 
ROOT
HETATM    1  C4' PAP A 125      39.933   0.144  23.983  1.00 30.66     0.178 C 
HETATM    2  O4' PAP A 125      39.115   1.205  24.485  1.00 30.64    -0.331 OA
HETATM    3  C3' PAP A 125      38.975  -0.892  23.335  1.00 32.01     0.192 C 
HETATM    4  C2' PAP A 125      37.744  -0.029  23.080  1.00 31.03     0.231 C 
HETATM    5  O2' PAP A 125      36.562  -0.846  22.933  1.00 29.14    -0.216 OA
HETATM    6  C1' PAP A 125      37.782   0.721  24.427  1.00 29.59     0.241 C 
ENDROOT
BRANCH   1   7
HETATM    7  C5' PAP A 125      40.869   0.782  22.997  1.00 29.07     0.187 C 
BRANCH   7   8
HETATM    8  O5' PAP A 125      42.156   0.297  23.326  1.00 30.13    -0.268 OA
BRANCH   8   9
HETATM    9  PA  PAP A 125      43.154   1.160  24.281  1.00 31.22     0.419 P 
HETATM   10  O1A PAP A 125      43.206   0.456  25.596  1.00 32.37    -0.624 OA
HETATM   11  O2A PAP A 125      44.429   1.397  23.552  1.00 32.57    -0.624 OA
BRANCH   9  12
HETATM   12  O3A PAP A 125      42.281   2.602  24.625  1.00 29.92    -0.173 OA
BRANCH  12  13
HETATM   13  PB  PAP A 125      42.329   3.821  25.730  1.00 26.94     0.431 P 
HETATM   14  O1B PAP A 125      41.505   4.902  25.151  1.00 24.20    -0.616 OA
HETATM   15  O2B PAP A 125      41.758   3.192  26.968  1.00 26.86    -0.616 OA
HETATM   16  O3B PAP A 125      43.764   4.167  25.855  1.00 28.16    -0.616 OA
ENDBRANCH  12  13
ENDBRANCH   9  12
ENDBRANCH   8   9
ENDBRANCH   7   8
ENDBRANCH   1   7
BRANCH   3  17
HETATM   17  O3' PAP A 125      38.690  -1.953  24.291  1.00 36.20    -0.261 OA
BRANCH  17  18
HETATM   18  P   PAP A 125      39.286  -3.534  24.045  1.00 39.68     0.423 P 
HETATM   19  O1  PAP A 125      40.445  -3.257  23.161  1.00 40.50    -0.617 OA
HETATM   20  O2  PAP A 125      39.631  -3.967  25.423  1.00 39.38    -0.617 OA
HETATM   21  O3  PAP A 125      38.158  -4.318  23.455  1.00 40.59    -0.617 OA
ENDBRANCH  17  18
ENDBRANCH   3  17
BRANCH   6  22
HETATM   22  N9  PAP A 125      36.945   1.938  24.536  1.00 29.22    -0.270 N 
HETATM   23  C4  PAP A 125      36.954   3.146  23.789  1.00 29.28     0.170 A 
HETATM   24  N3  PAP A 125      37.771   3.541  22.749  1.00 29.66    -0.205 NA
HETATM   25  C5  PAP A 125      35.934   3.917  24.337  1.00 29.93     0.155 A 
HETATM   26  C2  PAP A 125      37.453   4.792  22.339  1.00 28.29     0.202 A 
HETATM   27  N1  PAP A 125      36.514   5.649  22.768  1.00 27.66    -0.202 NA
HETATM   28  C6  PAP A 125      35.701   5.247  23.781  1.00 28.82     0.206 A 
HETATM   29  N6  PAP A 125      34.685   6.033  24.186  1.00 26.39    -0.125 N 
HETATM   30  N7  PAP A 125      35.308   3.200  25.406  1.00 30.19    -0.219 NA
HETATM   31  C8  PAP A 125      35.942   2.067  25.464  1.00 28.80     0.182 A 
ENDBRANCH   6  22
TORSDOF 8
ENDMDL
MODEL 7
REMARK VINA RESULT:    -6.402      5.859      9.108
REMARK INTER + INTRA:         -11.015
REMARK INTER:                  -9.741
REMARK INTRA:                  -1.275
REMARK UNBOUND:                -1.619
REMARK  8 active torsions:
REMARK  status: ('A' for Active; 'I' for Inactive)
REMARK    1  A    between atoms: P_1  and  O3'_9 
REMARK    2  A    between atoms: PA_2  and  O5'_5 
REMARK    3  A    between atoms: PA_2  and  O3A_23 
REMARK    4  A    between atoms: PB_3  and  O3A_23 
REMARK    5  A    between atoms: C5'_4  and  O5'_5 
REMARK    6  A    between atoms: C5'_4  and  C4'_6 
REMARK    7  A    between atoms: C3'_8  and  O3'_9 
REMARK    8  A    between atoms: C1'_12  and  N9_31 
ROOT
HETATM    1  C4' PAP A 125      37.050   7.245  24.675  1.00 30.66     0.178 C 
HETATM    2  O4' PAP A 125      36.578   8.410  25.359  1.00 30.64    -0.331 OA
HETATM    3  C3' PAP A 125      35.793   6.441  24.243  1.00 32.01     0.192 C 
HETATM    4  C2' PAP A 125      34.727   7.529  24.279  1.00 31.03     0.231 C 
HETATM    5  O2' PAP A 125      33.406   6.953  24.388  1.00 29.14    -0.216 OA
HETATM    6  C1' PAP A 125      35.197   8.185  25.593  1.00 29.59     0.241 C 
ENDROOT
BRANCH   1   7
HETATM    7  C5' PAP A 125      37.855   7.752  23.514  1.00 29.07     0.187 C 
BRANCH   7   8
HETATM    8  O5' PAP A 125      38.833   8.607  24.074  1.00 30.13    -0.268 OA
BRANCH   8   9
HETATM    9  PA  PAP A 125      40.409   8.200  24.051  1.00 31.22     0.419 P 
HETATM   10  O1A PAP A 125      40.801   8.078  22.616  1.00 32.37    -0.624 OA
HETATM   11  O2A PAP A 125      41.163   9.151  24.913  1.00 32.57    -0.624 OA
BRANCH   9  12
HETATM   12  O3A PAP A 125      40.444   6.579  24.623  1.00 29.92    -0.173 OA
BRANCH  12  13
HETATM   13  PB  PAP A 125      40.681   5.073  24.003  1.00 26.94     0.431 P 
HETATM   14  O1B PAP A 125      39.609   4.891  23.003  1.00 24.20    -0.616 OA
HETATM   15  O2B PAP A 125      42.068   5.146  23.429  1.00 26.86    -0.616 OA
HETATM   16  O3B PAP A 125      40.575   4.160  25.165  1.00 28.16    -0.616 OA
ENDBRANCH  12  13
ENDBRANCH   9  12
ENDBRANCH   8   9
ENDBRANCH   7   8
ENDBRANCH   1   7
BRANCH   3  17
HETATM   17  O3' PAP A 125      35.524   5.401  25.226  1.00 36.20    -0.261 OA
BRANCH  17  18
HETATM   18  P   PAP A 125      36.085   3.806  24.987  1.00 39.68     0.423 P 
HETATM   19  O1  PAP A 125      37.375   3.857  25.720  1.00 40.50    -0.617 OA
HETATM   20  O2  PAP A 125      35.025   2.990  25.631  1.00 39.38    -0.617 OA
HETATM   21  O3  PAP A 125      36.155   3.604  23.508  1.00 40.59    -0.617 OA
ENDBRANCH  17  18
ENDBRANCH   3  17
BRANCH   6  22
HETATM   22  N9  PAP A 125      34.654   9.527  25.900  1.00 29.22    -0.270 N 
HETATM   23  C4  PAP A 125      34.962  10.443  26.940  1.00 29.28     0.170 A 
HETATM   24  N3  PAP A 125      35.854  10.329  27.987  1.00 29.66    -0.205 NA
HETATM   25  C5  PAP A 125      34.142  11.542  26.710  1.00 29.93     0.155 A 
HETATM   26  C2  PAP A 125      35.814  11.432  28.773  1.00 28.29     0.202 A 
HETATM   27  N1  PAP A 125      35.082  12.552  28.683  1.00 27.66    -0.202 NA
HETATM   28  C6  PAP A 125      34.218  12.666  27.640  1.00 28.82     0.206 A 
HETATM   29  N6  PAP A 125      33.528  13.808  27.454  1.00 26.39    -0.125 N 
HETATM   30  N7  PAP A 125      33.338  11.310  25.548  1.00 30.19    -0.219 NA
HETATM   31  C8  PAP A 125      33.687  10.128  25.133  1.00 28.80     0.182 A 
ENDBRANCH   6  22
TORSDOF 8
ENDMDL
MODEL 8
REMARK VINA RESULT:    -6.385      1.731      4.102
REMARK INTER + INTRA:         -10.989
REMARK INTER:                  -9.934
REMARK INTRA:                  -1.055
REMARK UNBOUND:                -1.619
REMARK  8 active torsions:
REMARK  status: ('A' for Active; 'I' for Inactive)
REMARK    1  A    between atoms: P_1  and  O3'_9 
REMARK    2  A    between atoms: PA_2  and  O5'_5 
REMARK    3  A    between atoms: PA_2  and  O3A_23 
REMARK    4  A    between atoms: PB_3  and  O3A_23 
REMARK    5  A    between atoms: C5'_4  and  O5'_5 
REMARK    6  A    between atoms: C5'_4  and  C4'_6 
REMARK    7  A    between atoms: C3'_8  and  O3'_9 
REMARK    8  A    between atoms: C1'_12  and  N9_31 
ROOT
HETATM    1  C4' PAP A 125      36.979   5.654  23.055  1.00 30.66     0.178 C 
HETATM    2  O4' PAP A 125      37.263   4.263  22.879  1.00 30.64    -0.331 OA
HETATM    3  C3' PAP A 125      36.320   5.802  24.454  1.00 32.01     0.192 C 
HETATM    4  C2' PAP A 125      36.791   4.522  25.133  1.00 31.03     0.231 C 
HETATM    5  O2' PAP A 125      35.939   4.187  26.251  1.00 29.14    -0.216 OA
HETATM    6  C1' PAP A 125      36.570   3.595  23.921  1.00 29.59     0.241 C 
ENDROOT
BRANCH   1   7
HETATM    7  C5' PAP A 125      38.301   6.357  22.948  1.00 29.07     0.187 C 
BRANCH   7   8
HETATM    8  O5' PAP A 125      38.012   7.631  22.405  1.00 30.13    -0.268 OA
BRANCH   8   9
HETATM    9  PA  PAP A 125      38.564   8.987  23.117  1.00 31.22     0.419 P 
HETATM   10  O1A PAP A 125      39.003   9.899  22.020  1.00 32.37    -0.624 OA
HETATM   11  O2A PAP A 125      37.539   9.476  24.079  1.00 32.57    -0.624 OA
BRANCH   9  12
HETATM   12  O3A PAP A 125      40.037   8.511  23.866  1.00 29.92    -0.173 OA
BRANCH  12  13
HETATM   13  PB  PAP A 125      41.462   9.208  24.304  1.00 26.94     0.431 P 
HETATM   14  O1B PAP A 125      41.949   8.410  25.448  1.00 24.20    -0.616 OA
HETATM   15  O2B PAP A 125      42.300   9.098  23.062  1.00 26.86    -0.616 OA
HETATM   16  O3B PAP A 125      41.113  10.604  24.655  1.00 28.16    -0.616 OA
ENDBRANCH  12  13
ENDBRANCH   9  12
ENDBRANCH   8   9
ENDBRANCH   7   8
ENDBRANCH   1   7
BRANCH   3  17
HETATM   17  O3' PAP A 125      34.871   5.822  24.306  1.00 36.20    -0.261 OA
BRANCH  17  18
HETATM   18  P   PAP A 125      34.019   7.299  24.232  1.00 39.68     0.423 P 
HETATM   19  O1  PAP A 125      34.157   7.624  22.790  1.00 40.50    -0.617 OA
HETATM   20  O2  PAP A 125      32.654   6.908  24.664  1.00 39.38    -0.617 OA
HETATM   21  O3  PAP A 125      34.693   8.219  25.200  1.00 40.59    -0.617 OA
ENDBRANCH  17  18
ENDBRANCH   3  17
BRANCH   6  22
HETATM   22  N9  PAP A 125      37.201   2.257  23.982  1.00 29.22    -0.270 N 
HETATM   23  C4  PAP A 125      38.537   1.842  23.734  1.00 29.28     0.170 A 
HETATM   24  N3  PAP A 125      39.636   2.579  23.340  1.00 29.66    -0.205 NA
HETATM   25  C5  PAP A 125      38.538   0.470  23.961  1.00 29.93     0.155 A 
HETATM   26  C2  PAP A 125      40.719   1.780  23.190  1.00 28.29     0.202 A 
HETATM   27  N1  PAP A 125      40.870   0.458  23.363  1.00 27.66    -0.202 NA
HETATM   28  C6  PAP A 125      39.789  -0.259  23.769  1.00 28.82     0.206 A 
HETATM   29  N6  PAP A 125      39.911  -1.571  24.044  1.00 26.39    -0.125 N 
HETATM   30  N7  PAP A 125      37.225   0.042  24.339  1.00 30.19    -0.219 NA
HETATM   31  C8  PAP A 125      36.506   1.125  24.331  1.00 28.80     0.182 A 
ENDBRANCH   6  22
TORSDOF 8
ENDMDL
MODEL 9
REMARK VINA RESULT:    -6.255      5.857      8.898
REMARK INTER + INTRA:         -10.799
REMARK INTER:                  -9.635
REMARK INTRA:                  -1.164
REMARK UNBOUND:                -1.619
REMARK  8 active torsions:
REMARK  status: ('A' for Active; 'I' for Inactive)
REMARK    1  A    between atoms: P_1  and  O3'_9 
REMARK    2  A    between atoms: PA_2  and  O5'_5 
REMARK    3  A    between atoms: PA_2  and  O3A_23 
REMARK    4  A    between atoms: PB_3  and  O3A_23 
REMARK    5  A    between atoms: C5'_4  and  O5'_5 
REMARK    6  A    between atoms: C5'_4  and  C4'_6 
REMARK    7  A    between atoms: C3'_8  and  O3'_9 
REMARK    8  A    between atoms: C1'_12  and  N9_31 
ROOT
HETATM    1  C4' PAP A 125      36.788   7.107  24.257  1.00 30.66     0.178 C 
HETATM    2  O4' PAP A 125      36.436   8.301  24.965  1.00 30.64    -0.331 OA
HETATM    3  C3' PAP A 125      35.472   6.311  24.042  1.00 32.01     0.192 C 
HETATM    4  C2' PAP A 125      34.435   7.417  24.199  1.00 31.03     0.231 C 
HETATM    5  O2' PAP A 125      33.138   6.866  24.520  1.00 29.14    -0.216 OA
HETATM    6  C1' PAP A 125      35.102   8.105  25.407  1.00 29.59     0.241 C 
ENDROOT
BRANCH   1   7
HETATM    7  C5' PAP A 125      37.419   7.565  22.974  1.00 29.07     0.187 C 
BRANCH   7   8
HETATM    8  O5' PAP A 125      38.592   8.257  23.354  1.00 30.13    -0.268 OA
BRANCH   8   9
HETATM    9  PA  PAP A 125      39.828   8.439  22.309  1.00 31.22     0.419 P 
HETATM   10  O1A PAP A 125      40.709   7.246  22.473  1.00 32.37    -0.624 OA
HETATM   11  O2A PAP A 125      39.275   8.733  20.959  1.00 32.57    -0.624 OA
BRANCH   9  12
HETATM   12  O3A PAP A 125      40.760   9.727  22.964  1.00 29.92    -0.173 OA
BRANCH  12  13
HETATM   13  PB  PAP A 125      41.685  10.007  24.296  1.00 26.94     0.431 P 
HETATM   14  O1B PAP A 125      43.075  10.063  23.799  1.00 24.20    -0.616 OA
HETATM   15  O2B PAP A 125      41.155  11.311  24.821  1.00 26.86    -0.616 OA
HETATM   16  O3B PAP A 125      41.418   8.860  25.195  1.00 28.16    -0.616 OA
ENDBRANCH  12  13
ENDBRANCH   9  12
ENDBRANCH   8   9
ENDBRANCH   7   8
ENDBRANCH   1   7
BRANCH   3  17
HETATM   17  O3' PAP A 125      35.338   5.306  25.088  1.00 36.20    -0.261 OA
BRANCH  17  18
HETATM   18  P   PAP A 125      36.092   3.781  24.936  1.00 39.68     0.423 P 
HETATM   19  O1  PAP A 125      35.096   2.915  25.615  1.00 40.50    -0.617 OA
HETATM   20  O2  PAP A 125      36.181   3.609  23.465  1.00 39.38    -0.617 OA
HETATM   21  O3  PAP A 125      37.431   3.911  25.588  1.00 40.59    -0.617 OA
ENDBRANCH  17  18
ENDBRANCH   3  17
BRANCH   6  22
HETATM   22  N9  PAP A 125      34.626   9.465  25.746  1.00 29.22    -0.270 N 
HETATM   23  C4  PAP A 125      34.957  10.328  26.824  1.00 29.28     0.170 A 
HETATM   24  N3  PAP A 125      35.814  10.130  27.888  1.00 29.66    -0.205 NA
HETATM   25  C5  PAP A 125      34.205  11.478  26.612  1.00 29.93     0.155 A 
HETATM   26  C2  PAP A 125      35.815  11.207  28.709  1.00 28.29     0.202 A 
HETATM   27  N1  PAP A 125      35.148  12.369  28.640  1.00 27.66    -0.202 NA
HETATM   28  C6  PAP A 125      34.319  12.565  27.581  1.00 28.82     0.206 A 
HETATM   29  N6  PAP A 125      33.698  13.749  27.417  1.00 26.39    -0.125 N 
HETATM   30  N7  PAP A 125      33.419  11.329  25.424  1.00 30.19    -0.219 NA
HETATM   31  C8  PAP A 125      33.713  10.144  24.978  1.00 28.80     0.182 A 
ENDBRANCH   6  22
TORSDOF 8
ENDMDL
