MODEL 1
REMARK VINA RESULT:    -5.938      0.000      0.000
REMARK INTER + INTRA:         -10.143
REMARK INTER:                  -8.715
REMARK INTRA:                  -1.428
REMARK UNBOUND:                -1.428
REMARK  8 active torsions:
REMARK  status: ('A' for Active; 'I' for Inactive)
REMARK    1  A    between atoms: P_1  and  O3'_9 
REMARK    2  A    between atoms: PA_2  and  O5'_5 
REMARK    3  A    between atoms: PA_2  and  O3A_23 
REMARK    4  A    between atoms: PB_3  and  O3A_23 
REMARK    5  A    between atoms: C5'_4  and  O5'_5 
REMARK    6  A    between atoms: C5'_4  and  C4'_6 
REMARK    7  A    between atoms: C3'_8  and  O3'_9 
REMARK    8  A    between atoms: C1'_12  and  N9_31 
ROOT
HETATM    1  C4' PAP A 125      41.693 -10.324  32.391  1.00 30.66     0.178 C 
HETATM    2  O4' PAP A 125      42.086  -9.082  31.797  1.00 30.64    -0.331 OA
HETATM    3  C3' PAP A 125      40.874 -11.093  31.319  1.00 32.01     0.192 C 
HETATM    4  C2' PAP A 125      41.349 -10.407  30.044  1.00 31.03     0.231 C 
HETATM    5  O2' PAP A 125      40.402 -10.600  28.970  1.00 29.14    -0.216 OA
HETATM    6  C1' PAP A 125      41.326  -8.971  30.605  1.00 29.59     0.241 C 
ENDROOT
BRANCH   1   7
HETATM    7  C5' PAP A 125      42.970 -11.017  32.769  1.00 29.07     0.187 C 
BRANCH   7   8
HETATM    8  O5' PAP A 125      44.008 -10.205  32.256  1.00 30.13    -0.268 OA
BRANCH   8   9
HETATM    9  PA  PAP A 125      45.239 -10.858  31.413  1.00 31.22     0.419 P 
HETATM   10  O1A PAP A 125      44.718 -12.111  30.793  1.00 32.37    -0.624 OA
HETATM   11  O2A PAP A 125      45.818  -9.814  30.524  1.00 32.57    -0.624 OA
BRANCH   9  12
HETATM   12  O3A PAP A 125      46.333 -11.421  32.614  1.00 29.92    -0.173 OA
BRANCH  12  13
HETATM   13  PB  PAP A 125      47.368 -10.776  33.720  1.00 26.94     0.431 P 
HETATM   14  O1B PAP A 125      46.543  -9.865  34.540  1.00 24.20    -0.616 OA
HETATM   15  O2B PAP A 125      47.890 -11.979  34.452  1.00 26.86    -0.616 OA
HETATM   16  O3B PAP A 125      48.402 -10.083  32.916  1.00 28.16    -0.616 OA
ENDBRANCH  12  13
ENDBRANCH   9  12
ENDBRANCH   8   9
ENDBRANCH   7   8
ENDBRANCH   1   7
BRANCH   3  17
HETATM   17  O3' PAP A 125      39.452 -10.869  31.544  1.00 36.20    -0.261 OA
BRANCH  17  18
HETATM   18  P   PAP A 125      38.425 -12.154  31.997  1.00 39.68     0.423 P 
HETATM   19  O1  PAP A 125      39.393 -13.054  32.674  1.00 40.50    -0.617 OA
HETATM   20  O2  PAP A 125      37.449 -11.487  32.895  1.00 39.38    -0.617 OA
HETATM   21  O3  PAP A 125      37.803 -12.658  30.734  1.00 40.59    -0.617 OA
ENDBRANCH  17  18
ENDBRANCH   3  17
BRANCH   6  22
HETATM   22  N9  PAP A 125      42.032  -7.936  29.816  1.00 29.22    -0.270 N 
HETATM   23  C4  PAP A 125      41.880  -6.524  29.780  1.00 29.28     0.170 A 
HETATM   24  N3  PAP A 125      41.002  -5.709  30.466  1.00 29.66    -0.205 NA
HETATM   25  C5  PAP A 125      42.824  -6.081  28.861  1.00 29.93     0.155 A 
HETATM   26  C2  PAP A 125      41.176  -4.413  30.113  1.00 28.29     0.202 A 
HETATM   27  N1  PAP A 125      42.029  -3.842  29.249  1.00 27.66    -0.202 NA
HETATM   28  C6  PAP A 125      42.903  -4.648  28.590  1.00 28.82     0.206 A 
HETATM   29  N6  PAP A 125      43.840  -4.114  27.782  1.00 26.39    -0.125 N 
HETATM   30  N7  PAP A 125      43.548  -7.199  28.335  1.00 30.19    -0.219 NA
HETATM   31  C8  PAP A 125      43.037  -8.236  28.930  1.00 28.80     0.182 A 
ENDBRANCH   6  22
TORSDOF 8
ENDMDL
MODEL 2
REMARK VINA RESULT:    -5.728      1.930      3.563
REMARK INTER + INTRA:          -9.834
REMARK INTER:                  -8.253
REMARK INTRA:                  -1.581
REMARK UNBOUND:                -1.428
REMARK  8 active torsions:
REMARK  status: ('A' for Active; 'I' for Inactive)
REMARK    1  A    between atoms: P_1  and  O3'_9 
REMARK    2  A    between atoms: PA_2  and  O5'_5 
REMARK    3  A    between atoms: PA_2  and  O3A_23 
REMARK    4  A    between atoms: PB_3  and  O3A_23 
REMARK    5  A    between atoms: C5'_4  and  O5'_5 
REMARK    6  A    between atoms: C5'_4  and  C4'_6 
REMARK    7  A    between atoms: C3'_8  and  O3'_9 
REMARK    8  A    between atoms: C1'_12  and  N9_31 
ROOT
HETATM    1  C4' PAP A 125      41.744 -10.370  32.331  1.00 30.66     0.178 C 
HETATM    2  O4' PAP A 125      42.145  -9.130  31.739  1.00 30.64    -0.331 OA
HETATM    3  C3' PAP A 125      40.860 -11.100  31.283  1.00 32.01     0.192 C 
HETATM    4  C2' PAP A 125      41.300 -10.407  29.999  1.00 31.03     0.231 C 
HETATM    5  O2' PAP A 125      40.304 -10.558  28.964  1.00 29.14    -0.216 OA
HETATM    6  C1' PAP A 125      41.339  -8.980  30.582  1.00 29.59     0.241 C 
ENDROOT
BRANCH   1   7
HETATM    7  C5' PAP A 125      43.017 -11.102  32.644  1.00 29.07     0.187 C 
BRANCH   7   8
HETATM    8  O5' PAP A 125      42.708 -12.475  32.512  1.00 30.13    -0.268 OA
BRANCH   8   9
HETATM    9  PA  PAP A 125      43.680 -13.473  31.669  1.00 31.22     0.419 P 
HETATM   10  O1A PAP A 125      44.949 -12.727  31.420  1.00 32.37    -0.624 OA
HETATM   11  O2A PAP A 125      43.754 -14.781  32.375  1.00 32.57    -0.624 OA
BRANCH   9  12
HETATM   12  O3A PAP A 125      42.953 -13.572  30.114  1.00 29.92    -0.173 OA
BRANCH  12  13
HETATM   13  PB  PAP A 125      41.882 -14.544  29.329  1.00 26.94     0.431 P 
HETATM   14  O1B PAP A 125      40.686 -14.584  30.194  1.00 24.20    -0.616 OA
HETATM   15  O2B PAP A 125      41.680 -13.849  28.013  1.00 26.86    -0.616 OA
HETATM   16  O3B PAP A 125      42.572 -15.849  29.204  1.00 28.16    -0.616 OA
ENDBRANCH  12  13
ENDBRANCH   9  12
ENDBRANCH   8   9
ENDBRANCH   7   8
ENDBRANCH   1   7
BRANCH   3  17
HETATM   17  O3' PAP A 125      39.456 -10.842  31.572  1.00 36.20    -0.261 OA
BRANCH  17  18
HETATM   18  P   PAP A 125      38.416 -12.108  32.052  1.00 39.68     0.423 P 
HETATM   19  O1  PAP A 125      37.974 -12.617  30.729  1.00 40.50    -0.617 OA
HETATM   20  O2  PAP A 125      39.326 -13.008  32.803  1.00 39.38    -0.617 OA
HETATM   21  O3  PAP A 125      37.370 -11.482  32.919  1.00 40.59    -0.617 OA
ENDBRANCH  17  18
ENDBRANCH   3  17
BRANCH   6  22
HETATM   22  N9  PAP A 125      42.039  -7.951  29.779  1.00 29.22    -0.270 N 
HETATM   23  C4  PAP A 125      41.904  -6.537  29.753  1.00 29.28     0.170 A 
HETATM   24  N3  PAP A 125      41.056  -5.713  30.464  1.00 29.66    -0.205 NA
HETATM   25  C5  PAP A 125      42.831  -6.103  28.811  1.00 29.93     0.155 A 
HETATM   26  C2  PAP A 125      41.238  -4.418  30.111  1.00 28.29     0.202 A 
HETATM   27  N1  PAP A 125      42.077  -3.855  29.228  1.00 27.66    -0.202 NA
HETATM   28  C6  PAP A 125      42.922  -4.670  28.544  1.00 28.82     0.206 A 
HETATM   29  N6  PAP A 125      43.845  -4.146  27.714  1.00 26.39    -0.125 N 
HETATM   30  N7  PAP A 125      43.525  -7.228  28.262  1.00 30.19    -0.219 NA
HETATM   31  C8  PAP A 125      43.017  -8.261  28.867  1.00 28.80     0.182 A 
ENDBRANCH   6  22
TORSDOF 8
ENDMDL
MODEL 3
REMARK VINA RESULT:    -5.652      1.162      2.292
REMARK INTER + INTRA:          -9.724
REMARK INTER:                  -8.089
REMARK INTRA:                  -1.635
REMARK UNBOUND:                -1.428
REMARK  8 active torsions:
REMARK  status: ('A' for Active; 'I' for Inactive)
REMARK    1  A    between atoms: P_1  and  O3'_9 
REMARK    2  A    between atoms: PA_2  and  O5'_5 
REMARK    3  A    between atoms: PA_2  and  O3A_23 
REMARK    4  A    between atoms: PB_3  and  O3A_23 
REMARK    5  A    between atoms: C5'_4  and  O5'_5 
REMARK    6  A    between atoms: C5'_4  and  C4'_6 
REMARK    7  A    between atoms: C3'_8  and  O3'_9 
REMARK    8  A    between atoms: C1'_12  and  N9_31 
ROOT
HETATM    1  C4' PAP A 125      41.873 -10.349  32.350  1.00 30.66     0.178 C 
HETATM    2  O4' PAP A 125      42.225  -9.103  31.738  1.00 30.64    -0.331 OA
HETATM    3  C3' PAP A 125      40.979 -11.109  31.332  1.00 32.01     0.192 C 
HETATM    4  C2' PAP A 125      41.364 -10.415  30.032  1.00 31.03     0.231 C 
HETATM    5  O2' PAP A 125      40.343 -10.599  29.026  1.00 29.14    -0.216 OA
HETATM    6  C1' PAP A 125      41.383  -8.983  30.603  1.00 29.59     0.241 C 
ENDROOT
BRANCH   1   7
HETATM    7  C5' PAP A 125      43.172 -11.046  32.631  1.00 29.07     0.187 C 
BRANCH   7   8
HETATM    8  O5' PAP A 125      44.168 -10.258  32.008  1.00 30.13    -0.268 OA
BRANCH   8   9
HETATM    9  PA  PAP A 125      45.243 -10.928  30.984  1.00 31.22     0.419 P 
HETATM   10  O1A PAP A 125      46.347 -11.482  31.822  1.00 32.37    -0.624 OA
HETATM   11  O2A PAP A 125      44.520 -11.849  30.065  1.00 32.57    -0.624 OA
BRANCH   9  12
HETATM   12  O3A PAP A 125      45.969  -9.590  30.185  1.00 29.92    -0.173 OA
BRANCH  12  13
HETATM   13  PB  PAP A 125      47.079  -9.336  28.997  1.00 26.94     0.431 P 
HETATM   14  O1B PAP A 125      46.746  -8.012  28.431  1.00 24.20    -0.616 OA
HETATM   15  O2B PAP A 125      48.390  -9.394  29.727  1.00 26.86    -0.616 OA
HETATM   16  O3B PAP A 125      46.886 -10.456  28.047  1.00 28.16    -0.616 OA
ENDBRANCH  12  13
ENDBRANCH   9  12
ENDBRANCH   8   9
ENDBRANCH   7   8
ENDBRANCH   1   7
BRANCH   3  17
HETATM   17  O3' PAP A 125      39.577 -10.885  31.658  1.00 36.20    -0.261 OA
BRANCH  17  18
HETATM   18  P   PAP A 125      38.599 -12.160  32.236  1.00 39.68     0.423 P 
HETATM   19  O1  PAP A 125      37.443 -11.398  32.770  1.00 40.50    -0.617 OA
HETATM   20  O2  PAP A 125      38.326 -12.942  31.004  1.00 39.38    -0.617 OA
HETATM   21  O3  PAP A 125      39.431 -12.909  33.227  1.00 40.59    -0.617 OA
ENDBRANCH  17  18
ENDBRANCH   3  17
BRANCH   6  22
HETATM   22  N9  PAP A 125      42.033  -7.943  29.773  1.00 29.22    -0.270 N 
HETATM   23  C4  PAP A 125      41.873  -6.532  29.751  1.00 29.28     0.170 A 
HETATM   24  N3  PAP A 125      41.037  -5.722  30.494  1.00 29.66    -0.205 NA
HETATM   25  C5  PAP A 125      42.755  -6.083  28.775  1.00 29.93     0.155 A 
HETATM   26  C2  PAP A 125      41.183  -4.425  30.133  1.00 28.29     0.202 A 
HETATM   27  N1  PAP A 125      41.977  -3.848  29.218  1.00 27.66    -0.202 NA
HETATM   28  C6  PAP A 125      42.811  -4.649  28.503  1.00 28.82     0.206 A 
HETATM   29  N6  PAP A 125      43.692  -4.109  27.639  1.00 26.39    -0.125 N 
HETATM   30  N7  PAP A 125      43.448  -7.196  28.201  1.00 30.19    -0.219 NA
HETATM   31  C8  PAP A 125      42.981  -8.237  28.825  1.00 28.80     0.182 A 
ENDBRANCH   6  22
TORSDOF 8
ENDMDL
MODEL 4
REMARK VINA RESULT:    -5.644      1.771      2.480
REMARK INTER + INTRA:          -9.711
REMARK INTER:                  -8.398
REMARK INTRA:                  -1.312
REMARK UNBOUND:                -1.428
REMARK  8 active torsions:
REMARK  status: ('A' for Active; 'I' for Inactive)
REMARK    1  A    between atoms: P_1  and  O3'_9 
REMARK    2  A    between atoms: PA_2  and  O5'_5 
REMARK    3  A    between atoms: PA_2  and  O3A_23 
REMARK    4  A    between atoms: PB_3  and  O3A_23 
REMARK    5  A    between atoms: C5'_4  and  O5'_5 
REMARK    6  A    between atoms: C5'_4  and  C4'_6 
REMARK    7  A    between atoms: C3'_8  and  O3'_9 
REMARK    8  A    between atoms: C1'_12  and  N9_31 
ROOT
HETATM    1  C4' PAP A 125      41.720 -10.352  32.381  1.00 30.66     0.178 C 
HETATM    2  O4' PAP A 125      42.112  -9.113  31.782  1.00 30.64    -0.331 OA
HETATM    3  C3' PAP A 125      40.898 -11.124  31.314  1.00 32.01     0.192 C 
HETATM    4  C2' PAP A 125      41.370 -10.444  30.035  1.00 31.03     0.231 C 
HETATM    5  O2' PAP A 125      40.420 -10.640  28.965  1.00 29.14    -0.216 OA
HETATM    6  C1' PAP A 125      41.349  -9.005  30.590  1.00 29.59     0.241 C 
ENDROOT
BRANCH   1   7
HETATM    7  C5' PAP A 125      42.998 -11.044  32.758  1.00 29.07     0.187 C 
BRANCH   7   8
HETATM    8  O5' PAP A 125      42.688 -12.423  32.790  1.00 30.13    -0.268 OA
BRANCH   8   9
HETATM    9  PA  PAP A 125      42.573 -13.220  34.205  1.00 31.22     0.419 P 
HETATM   10  O1A PAP A 125      41.451 -12.593  34.963  1.00 32.37    -0.624 OA
HETATM   11  O2A PAP A 125      42.513 -14.682  33.930  1.00 32.57    -0.624 OA
BRANCH   9  12
HETATM   12  O3A PAP A 125      43.974 -12.744  35.083  1.00 29.92    -0.173 OA
BRANCH  12  13
HETATM   13  PB  PAP A 125      45.583 -13.087  35.088  1.00 26.94     0.431 P 
HETATM   14  O1B PAP A 125      46.136 -12.376  33.918  1.00 24.20    -0.616 OA
HETATM   15  O2B PAP A 125      46.047 -12.561  36.417  1.00 26.86    -0.616 OA
HETATM   16  O3B PAP A 125      45.661 -14.563  34.982  1.00 28.16    -0.616 OA
ENDBRANCH  12  13
ENDBRANCH   9  12
ENDBRANCH   8   9
ENDBRANCH   7   8
ENDBRANCH   1   7
BRANCH   3  17
HETATM   17  O3' PAP A 125      39.477 -10.899  31.542  1.00 36.20    -0.261 OA
BRANCH  17  18
HETATM   18  P   PAP A 125      38.444 -12.189  31.968  1.00 39.68     0.423 P 
HETATM   19  O1  PAP A 125      37.493 -11.493  32.870  1.00 40.50    -0.617 OA
HETATM   20  O2  PAP A 125      37.884 -12.602  30.657  1.00 39.38    -0.617 OA
HETATM   21  O3  PAP A 125      39.316 -13.237  32.584  1.00 40.59    -0.617 OA
ENDBRANCH  17  18
ENDBRANCH   3  17
BRANCH   6  22
HETATM   22  N9  PAP A 125      42.054  -7.973  29.796  1.00 29.22    -0.270 N 
HETATM   23  C4  PAP A 125      41.893  -6.563  29.746  1.00 29.28     0.170 A 
HETATM   24  N3  PAP A 125      41.006  -5.747  30.420  1.00 29.66    -0.205 NA
HETATM   25  C5  PAP A 125      42.840  -6.123  28.828  1.00 29.93     0.155 A 
HETATM   26  C2  PAP A 125      41.175  -4.454  30.055  1.00 28.29     0.202 A 
HETATM   27  N1  PAP A 125      42.030  -3.885  29.191  1.00 27.66    -0.202 NA
HETATM   28  C6  PAP A 125      42.912  -4.692  28.544  1.00 28.82     0.206 A 
HETATM   29  N6  PAP A 125      43.850  -4.161  27.737  1.00 26.39    -0.125 N 
HETATM   30  N7  PAP A 125      43.573  -7.242  28.317  1.00 30.19    -0.219 NA
HETATM   31  C8  PAP A 125      43.066  -8.276  28.919  1.00 28.80     0.182 A 
ENDBRANCH   6  22
TORSDOF 8
ENDMDL
MODEL 5
REMARK VINA RESULT:    -5.623     18.728     20.658
REMARK INTER + INTRA:          -9.680
REMARK INTER:                  -8.207
REMARK INTRA:                  -1.472
REMARK UNBOUND:                -1.428
REMARK  8 active torsions:
REMARK  status: ('A' for Active; 'I' for Inactive)
REMARK    1  A    between atoms: P_1  and  O3'_9 
REMARK    2  A    between atoms: PA_2  and  O5'_5 
REMARK    3  A    between atoms: PA_2  and  O3A_23 
REMARK    4  A    between atoms: PB_3  and  O3A_23 
REMARK    5  A    between atoms: C5'_4  and  O5'_5 
REMARK    6  A    between atoms: C5'_4  and  C4'_6 
REMARK    7  A    between atoms: C3'_8  and  O3'_9 
REMARK    8  A    between atoms: C1'_12  and  N9_31 
ROOT
HETATM    1  C4' PAP A 125      41.327   3.537  43.994  1.00 30.66     0.178 C 
HETATM    2  O4' PAP A 125      42.141   4.696  43.791  1.00 30.64    -0.331 OA
HETATM    3  C3' PAP A 125      42.114   2.599  44.949  1.00 32.01     0.192 C 
HETATM    4  C2' PAP A 125      43.073   3.588  45.602  1.00 31.03     0.231 C 
HETATM    5  O2' PAP A 125      44.216   2.905  46.162  1.00 29.14    -0.216 OA
HETATM    6  C1' PAP A 125      43.417   4.364  44.315  1.00 29.59     0.241 C 
ENDROOT
BRANCH   1   7
HETATM    7  C5' PAP A 125      40.042   4.040  44.585  1.00 29.07     0.187 C 
BRANCH   7   8
HETATM    8  O5' PAP A 125      39.929   5.384  44.160  1.00 30.13    -0.268 OA
BRANCH   8   9
HETATM    9  PA  PAP A 125      39.239   6.507  45.117  1.00 31.22     0.419 P 
HETATM   10  O1A PAP A 125      37.960   5.920  45.613  1.00 32.37    -0.624 OA
HETATM   11  O2A PAP A 125      40.242   6.968  46.115  1.00 32.57    -0.624 OA
BRANCH   9  12
HETATM   12  O3A PAP A 125      38.729   7.741  44.034  1.00 29.92    -0.173 OA
BRANCH  12  13
HETATM   13  PB  PAP A 125      39.357   8.594  42.774  1.00 26.94     0.431 P 
HETATM   14  O1B PAP A 125      40.775   8.816  43.124  1.00 24.20    -0.616 OA
HETATM   15  O2B PAP A 125      39.136   7.690  41.596  1.00 26.86    -0.616 OA
HETATM   16  O3B PAP A 125      38.555   9.839  42.718  1.00 28.16    -0.616 OA
ENDBRANCH  12  13
ENDBRANCH   9  12
ENDBRANCH   8   9
ENDBRANCH   7   8
ENDBRANCH   1   7
BRANCH   3  17
HETATM   17  O3' PAP A 125      42.831   1.603  44.166  1.00 36.20    -0.261 OA
BRANCH  17  18
HETATM   18  P   PAP A 125      42.201   0.028  43.967  1.00 39.68     0.423 P 
HETATM   19  O1  PAP A 125      42.412  -0.169  42.511  1.00 40.50    -0.617 OA
HETATM   20  O2  PAP A 125      43.077  -0.785  44.848  1.00 39.38    -0.617 OA
HETATM   21  O3  PAP A 125      40.785   0.081  44.444  1.00 40.59    -0.617 OA
ENDBRANCH  17  18
ENDBRANCH   3  17
BRANCH   6  22
HETATM   22  N9  PAP A 125      44.095   5.670  44.485  1.00 29.22    -0.270 N 
HETATM   23  C4  PAP A 125      45.469   5.996  44.632  1.00 29.28     0.170 A 
HETATM   24  N3  PAP A 125      46.576   5.172  44.680  1.00 29.66    -0.205 NA
HETATM   25  C5  PAP A 125      45.503   7.382  44.740  1.00 29.93     0.155 A 
HETATM   26  C2  PAP A 125      47.705   5.898  44.861  1.00 28.29     0.202 A 
HETATM   27  N1  PAP A 125      47.892   7.221  44.987  1.00 27.66    -0.202 NA
HETATM   28  C6  PAP A 125      46.801   8.028  44.921  1.00 28.82     0.206 A 
HETATM   29  N6  PAP A 125      46.945   9.366  44.950  1.00 26.39    -0.125 N 
HETATM   30  N7  PAP A 125      44.172   7.905  44.664  1.00 30.19    -0.219 NA
HETATM   31  C8  PAP A 125      43.412   6.860  44.516  1.00 28.80     0.182 A 
ENDBRANCH   6  22
TORSDOF 8
ENDMDL
MODEL 6
REMARK VINA RESULT:    -5.538     10.534     12.998
REMARK INTER + INTRA:          -9.555
REMARK INTER:                  -8.420
REMARK INTRA:                  -1.135
REMARK UNBOUND:                -1.428
REMARK  8 active torsions:
REMARK  status: ('A' for Active; 'I' for Inactive)
REMARK    1  A    between atoms: P_1  and  O3'_9 
REMARK    2  A    between atoms: PA_2  and  O5'_5 
REMARK    3  A    between atoms: PA_2  and  O3A_23 
REMARK    4  A    between atoms: PB_3  and  O3A_23 
REMARK    5  A    between atoms: C5'_4  and  O5'_5 
REMARK    6  A    between atoms: C5'_4  and  C4'_6 
REMARK    7  A    between atoms: C3'_8  and  O3'_9 
REMARK    8  A    between atoms: C1'_12  and  N9_31 
ROOT
HETATM    1  C4' PAP A 125      43.076  -6.210  41.630  1.00 30.66     0.178 C 
HETATM    2  O4' PAP A 125      42.414  -4.944  41.717  1.00 30.64    -0.331 OA
HETATM    3  C3' PAP A 125      44.379  -6.091  42.466  1.00 32.01     0.192 C 
HETATM    4  C2' PAP A 125      44.036  -4.914  43.372  1.00 31.03     0.231 C 
HETATM    5  O2' PAP A 125      45.234  -4.304  43.900  1.00 29.14    -0.216 OA
HETATM    6  C1' PAP A 125      43.362  -4.054  42.285  1.00 29.59     0.241 C 
ENDROOT
BRANCH   1   7
HETATM    7  C5' PAP A 125      42.107  -7.214  42.183  1.00 29.07     0.187 C 
BRANCH   7   8
HETATM    8  O5' PAP A 125      41.004  -7.206  41.298  1.00 30.13    -0.268 OA
BRANCH   8   9
HETATM    9  PA  PAP A 125      40.913  -8.268  40.067  1.00 31.22     0.419 P 
HETATM   10  O1A PAP A 125      41.413  -7.560  38.852  1.00 32.37    -0.624 OA
HETATM   11  O2A PAP A 125      41.581  -9.534  40.476  1.00 32.57    -0.624 OA
BRANCH   9  12
HETATM   12  O3A PAP A 125      39.228  -8.443  39.773  1.00 29.92    -0.173 OA
BRANCH  12  13
HETATM   13  PB  PAP A 125      37.863  -8.736  40.645  1.00 26.94     0.431 P 
HETATM   14  O1B PAP A 125      36.808  -8.988  39.642  1.00 24.20    -0.616 OA
HETATM   15  O2B PAP A 125      38.231  -9.929  41.480  1.00 26.86    -0.616 OA
HETATM   16  O3B PAP A 125      37.647  -7.506  41.441  1.00 28.16    -0.616 OA
ENDBRANCH  12  13
ENDBRANCH   9  12
ENDBRANCH   8   9
ENDBRANCH   7   8
ENDBRANCH   1   7
BRANCH   3  17
HETATM   17  O3' PAP A 125      45.493  -5.774  41.583  1.00 36.20    -0.261 OA
BRANCH  17  18
HETATM   18  P   PAP A 125      46.676  -6.948  41.212  1.00 39.68     0.423 P 
HETATM   19  O1  PAP A 125      47.781  -6.517  42.104  1.00 40.50    -0.617 OA
HETATM   20  O2  PAP A 125      46.008  -8.215  41.602  1.00 39.38    -0.617 OA
HETATM   21  O3  PAP A 125      46.917  -6.847  39.740  1.00 40.59    -0.617 OA
ENDBRANCH  17  18
ENDBRANCH   3  17
BRANCH   6  22
HETATM   22  N9  PAP A 125      42.553  -2.905  42.751  1.00 29.22    -0.270 N 
HETATM   23  C4  PAP A 125      41.755  -1.974  42.034  1.00 29.28     0.170 A 
HETATM   24  N3  PAP A 125      41.522  -1.864  40.678  1.00 29.66    -0.205 NA
HETATM   25  C5  PAP A 125      41.225  -1.129  43.003  1.00 29.93     0.155 A 
HETATM   26  C2  PAP A 125      40.715  -0.808  40.414  1.00 28.29     0.202 A 
HETATM   27  N1  PAP A 125      40.140   0.087  41.231  1.00 27.66    -0.202 NA
HETATM   28  C6  PAP A 125      40.358  -0.038  42.567  1.00 28.82     0.206 A 
HETATM   29  N6  PAP A 125      39.731   0.779  43.435  1.00 26.39    -0.125 N 
HETATM   30  N7  PAP A 125      41.690  -1.528  44.297  1.00 30.19    -0.219 NA
HETATM   31  C8  PAP A 125      42.450  -2.559  44.075  1.00 28.80     0.182 A 
ENDBRANCH   6  22
TORSDOF 8
ENDMDL
MODEL 7
REMARK VINA RESULT:    -5.524     10.869     13.178
REMARK INTER + INTRA:          -9.535
REMARK INTER:                  -7.994
REMARK INTRA:                  -1.541
REMARK UNBOUND:                -1.428
REMARK  8 active torsions:
REMARK  status: ('A' for Active; 'I' for Inactive)
REMARK    1  A    between atoms: P_1  and  O3'_9 
REMARK    2  A    between atoms: PA_2  and  O5'_5 
REMARK    3  A    between atoms: PA_2  and  O3A_23 
REMARK    4  A    between atoms: PB_3  and  O3A_23 
REMARK    5  A    between atoms: C5'_4  and  O5'_5 
REMARK    6  A    between atoms: C5'_4  and  C4'_6 
REMARK    7  A    between atoms: C3'_8  and  O3'_9 
REMARK    8  A    between atoms: C1'_12  and  N9_31 
ROOT
HETATM    1  C4' PAP A 125      43.698  -6.592  42.576  1.00 30.66     0.178 C 
HETATM    2  O4' PAP A 125      42.873  -5.424  42.512  1.00 30.64    -0.331 OA
HETATM    3  C3' PAP A 125      45.045  -6.153  43.212  1.00 32.01     0.192 C 
HETATM    4  C2' PAP A 125      44.626  -4.872  43.924  1.00 31.03     0.231 C 
HETATM    5  O2' PAP A 125      45.770  -4.028  44.183  1.00 29.14    -0.216 OA
HETATM    6  C1' PAP A 125      43.734  -4.331  42.789  1.00 29.59     0.241 C 
ENDROOT
BRANCH   1   7
HETATM    7  C5' PAP A 125      42.941  -7.579  43.416  1.00 29.07     0.187 C 
BRANCH   7   8
HETATM    8  O5' PAP A 125      42.506  -8.584  42.522  1.00 30.13    -0.268 OA
BRANCH   8   9
HETATM    9  PA  PAP A 125      40.934  -8.715  42.114  1.00 31.22     0.419 P 
HETATM   10  O1A PAP A 125      40.769 -10.049  41.465  1.00 32.37    -0.624 OA
HETATM   11  O2A PAP A 125      40.102  -8.400  43.307  1.00 32.57    -0.624 OA
BRANCH   9  12
HETATM   12  O3A PAP A 125      40.730  -7.602  40.820  1.00 29.92    -0.173 OA
BRANCH  12  13
HETATM   13  PB  PAP A 125      41.506  -7.200  39.425  1.00 26.94     0.431 P 
HETATM   14  O1B PAP A 125      41.736  -5.743  39.515  1.00 24.20    -0.616 OA
HETATM   15  O2B PAP A 125      42.754  -8.035  39.466  1.00 26.86    -0.616 OA
HETATM   16  O3B PAP A 125      40.573  -7.590  38.342  1.00 28.16    -0.616 OA
ENDBRANCH  12  13
ENDBRANCH   9  12
ENDBRANCH   8   9
ENDBRANCH   7   8
ENDBRANCH   1   7
BRANCH   3  17
HETATM   17  O3' PAP A 125      46.012  -5.882  42.158  1.00 36.20    -0.261 OA
BRANCH  17  18
HETATM   18  P   PAP A 125      47.378  -6.885  41.945  1.00 39.68     0.423 P 
HETATM   19  O1  PAP A 125      47.749  -6.550  40.547  1.00 40.50    -0.617 OA
HETATM   20  O2  PAP A 125      48.312  -6.384  42.984  1.00 39.38    -0.617 OA
HETATM   21  O3  PAP A 125      46.914  -8.282  42.205  1.00 40.59    -0.617 OA
ENDBRANCH  17  18
ENDBRANCH   3  17
BRANCH   6  22
HETATM   22  N9  PAP A 125      42.817  -3.221  43.133  1.00 29.22    -0.270 N 
HETATM   23  C4  PAP A 125      42.078  -2.331  42.309  1.00 29.28     0.170 A 
HETATM   24  N3  PAP A 125      42.021  -2.237  40.933  1.00 29.66    -0.205 NA
HETATM   25  C5  PAP A 125      41.386  -1.510  43.192  1.00 29.93     0.155 A 
HETATM   26  C2  PAP A 125      41.207  -1.223  40.555  1.00 28.29     0.202 A 
HETATM   27  N1  PAP A 125      40.488  -0.353  41.281  1.00 27.66    -0.202 NA
HETATM   28  C6  PAP A 125      40.534  -0.463  42.635  1.00 28.82     0.206 A 
HETATM   29  N6  PAP A 125      39.759   0.326  43.405  1.00 26.39    -0.125 N 
HETATM   30  N7  PAP A 125      41.694  -1.882  44.540  1.00 30.19    -0.219 NA
HETATM   31  C8  PAP A 125      42.525  -2.875  44.429  1.00 28.80     0.182 A 
ENDBRANCH   6  22
TORSDOF 8
ENDMDL
MODEL 8
REMARK VINA RESULT:    -5.507     18.574     20.460
REMARK INTER + INTRA:          -9.510
REMARK INTER:                  -7.835
REMARK INTRA:                  -1.675
REMARK UNBOUND:                -1.428
REMARK  8 active torsions:
REMARK  status: ('A' for Active; 'I' for Inactive)
REMARK    1  A    between atoms: P_1  and  O3'_9 
REMARK    2  A    between atoms: PA_2  and  O5'_5 
REMARK    3  A    between atoms: PA_2  and  O3A_23 
REMARK    4  A    between atoms: PB_3  and  O3A_23 
REMARK    5  A    between atoms: C5'_4  and  O5'_5 
REMARK    6  A    between atoms: C5'_4  and  C4'_6 
REMARK    7  A    between atoms: C3'_8  and  O3'_9 
REMARK    8  A    between atoms: C1'_12  and  N9_31 
ROOT
HETATM    1  C4' PAP A 125      40.323   2.779  43.961  1.00 30.66     0.178 C 
HETATM    2  O4' PAP A 125      40.843   4.106  43.822  1.00 30.64    -0.331 OA
HETATM    3  C3' PAP A 125      41.452   1.921  44.595  1.00 32.01     0.192 C 
HETATM    4  C2' PAP A 125      42.316   3.003  45.232  1.00 31.03     0.231 C 
HETATM    5  O2' PAP A 125      43.658   2.521  45.464  1.00 29.14    -0.216 OA
HETATM    6  C1' PAP A 125      42.238   3.996  44.056  1.00 29.59     0.241 C 
ENDROOT
BRANCH   1   7
HETATM    7  C5' PAP A 125      39.113   2.907  44.840  1.00 29.07     0.187 C 
BRANCH   7   8
HETATM    8  O5' PAP A 125      38.800   4.286  44.859  1.00 30.13    -0.268 OA
BRANCH   8   9
HETATM    9  PA  PAP A 125      38.444   5.043  46.256  1.00 31.22     0.419 P 
HETATM   10  O1A PAP A 125      37.324   4.281  46.884  1.00 32.37    -0.624 OA
HETATM   11  O2A PAP A 125      39.699   5.228  47.034  1.00 32.57    -0.624 OA
BRANCH   9  12
HETATM   12  O3A PAP A 125      37.712   6.521  45.771  1.00 29.92    -0.173 OA
BRANCH  12  13
HETATM   13  PB  PAP A 125      38.192   8.006  45.250  1.00 26.94     0.431 P 
HETATM   14  O1B PAP A 125      36.984   8.853  45.323  1.00 24.20    -0.616 OA
HETATM   15  O2B PAP A 125      39.279   8.380  46.217  1.00 26.86    -0.616 OA
HETATM   16  O3B PAP A 125      38.684   7.786  43.870  1.00 28.16    -0.616 OA
ENDBRANCH  12  13
ENDBRANCH   9  12
ENDBRANCH   8   9
ENDBRANCH   7   8
ENDBRANCH   1   7
BRANCH   3  17
HETATM   17  O3' PAP A 125      42.172   1.217  43.544  1.00 36.20    -0.261 OA
BRANCH  17  18
HETATM   18  P   PAP A 125      42.140  -0.488  43.452  1.00 39.68     0.423 P 
HETATM   19  O1  PAP A 125      42.317  -0.688  41.993  1.00 40.50    -0.617 OA
HETATM   20  O2  PAP A 125      43.301  -0.879  44.290  1.00 39.38    -0.617 OA
HETATM   21  O3  PAP A 125      40.832  -0.913  44.039  1.00 40.59    -0.617 OA
ENDBRANCH  17  18
ENDBRANCH   3  17
BRANCH   6  22
HETATM   22  N9  PAP A 125      42.675   5.385  44.326  1.00 29.22    -0.270 N 
HETATM   23  C4  PAP A 125      43.971   5.963  44.377  1.00 29.28     0.170 A 
HETATM   24  N3  PAP A 125      45.210   5.379  44.206  1.00 29.66    -0.205 NA
HETATM   25  C5  PAP A 125      43.757   7.308  44.660  1.00 29.93     0.155 A 
HETATM   26  C2  PAP A 125      46.196   6.293  44.366  1.00 28.29     0.202 A 
HETATM   27  N1  PAP A 125      46.146   7.605  44.644  1.00 27.66    -0.202 NA
HETATM   28  C6  PAP A 125      44.923   8.178  44.793  1.00 28.82     0.206 A 
HETATM   29  N6  PAP A 125      44.816   9.507  44.982  1.00 26.39    -0.125 N 
HETATM   30  N7  PAP A 125      42.353   7.557  44.786  1.00 30.19    -0.219 NA
HETATM   31  C8  PAP A 125      41.790   6.404  44.580  1.00 28.80     0.182 A 
ENDBRANCH   6  22
TORSDOF 8
ENDMDL
MODEL 9
REMARK VINA RESULT:    -5.403      2.872      5.653
REMARK INTER + INTRA:          -9.358
REMARK INTER:                  -7.970
REMARK INTRA:                  -1.388
REMARK UNBOUND:                -1.428
REMARK  8 active torsions:
REMARK  status: ('A' for Active; 'I' for Inactive)
REMARK    1  A    between atoms: P_1  and  O3'_9 
REMARK    2  A    between atoms: PA_2  and  O5'_5 
REMARK    3  A    between atoms: PA_2  and  O3A_23 
REMARK    4  A    between atoms: PB_3  and  O3A_23 
REMARK    5  A    between atoms: C5'_4  and  O5'_5 
REMARK    6  A    between atoms: C5'_4  and  C4'_6 
REMARK    7  A    between atoms: C3'_8  and  O3'_9 
REMARK    8  A    between atoms: C1'_12  and  N9_31 
ROOT
HETATM    1  C4' PAP A 125      40.555 -10.346  30.741  1.00 30.66     0.178 C 
HETATM    2  O4' PAP A 125      40.569  -8.968  30.357  1.00 30.64    -0.331 OA
HETATM    3  C3' PAP A 125      41.966 -10.913  30.423  1.00 32.01     0.192 C 
HETATM    4  C2' PAP A 125      42.789  -9.631  30.377  1.00 31.03     0.231 C 
HETATM    5  O2' PAP A 125      44.013  -9.831  29.635  1.00 29.14    -0.216 OA
HETATM    6  C1' PAP A 125      41.755  -8.793  29.600  1.00 29.59     0.241 C 
ENDROOT
BRANCH   1   7
HETATM    7  C5' PAP A 125      40.230 -10.358  32.207  1.00 29.07     0.187 C 
BRANCH   7   8
HETATM    8  O5' PAP A 125      40.139 -11.723  32.565  1.00 30.13    -0.268 OA
BRANCH   8   9
HETATM    9  PA  PAP A 125      38.693 -12.465  32.666  1.00 31.22     0.419 P 
HETATM   10  O1A PAP A 125      38.767 -13.394  33.831  1.00 32.37    -0.624 OA
HETATM   11  O2A PAP A 125      37.622 -11.432  32.650  1.00 32.57    -0.624 OA
BRANCH   9  12
HETATM   12  O3A PAP A 125      38.654 -13.517  31.307  1.00 29.92    -0.173 OA
BRANCH  12  13
HETATM   13  PB  PAP A 125      37.842 -14.869  30.835  1.00 26.94     0.431 P 
HETATM   14  O1B PAP A 125      36.412 -14.500  30.879  1.00 24.20    -0.616 OA
HETATM   15  O2B PAP A 125      38.378 -15.135  29.458  1.00 26.86    -0.616 OA
HETATM   16  O3B PAP A 125      38.221 -15.907  31.823  1.00 28.16    -0.616 OA
ENDBRANCH  12  13
ENDBRANCH   9  12
ENDBRANCH   8   9
ENDBRANCH   7   8
ENDBRANCH   1   7
BRANCH   3  17
HETATM   17  O3' PAP A 125      41.940 -11.574  29.125  1.00 36.20    -0.261 OA
BRANCH  17  18
HETATM   18  P   PAP A 125      41.967 -13.277  29.011  1.00 39.68     0.423 P 
HETATM   19  O1  PAP A 125      43.311 -13.491  28.418  1.00 40.50    -0.617 OA
HETATM   20  O2  PAP A 125      41.827 -13.699  30.427  1.00 39.38    -0.617 OA
HETATM   21  O3  PAP A 125      40.790 -13.659  28.171  1.00 40.59    -0.617 OA
ENDBRANCH  17  18
ENDBRANCH   3  17
BRANCH   6  22
HETATM   22  N9  PAP A 125      41.965  -7.327  29.580  1.00 29.22    -0.270 N 
HETATM   23  C4  PAP A 125      42.862  -6.523  28.829  1.00 29.28     0.170 A 
HETATM   24  N3  PAP A 125      43.821  -6.888  27.906  1.00 29.66    -0.205 NA
HETATM   25  C5  PAP A 125      42.595  -5.216  29.223  1.00 29.93     0.155 A 
HETATM   26  C2  PAP A 125      44.480  -5.800  27.443  1.00 28.29     0.202 A 
HETATM   27  N1  PAP A 125      44.341  -4.496  27.730  1.00 27.66    -0.202 NA
HETATM   28  C6  PAP A 125      43.382  -4.141  28.626  1.00 28.82     0.206 A 
HETATM   29  N6  PAP A 125      43.141  -2.840  28.879  1.00 26.39    -0.125 N 
HETATM   30  N7  PAP A 125      41.551  -5.212  30.204  1.00 30.19    -0.219 NA
HETATM   31  C8  PAP A 125      41.236  -6.464  30.360  1.00 28.80     0.182 A 
ENDBRANCH   6  22
TORSDOF 8
ENDMDL
