MODEL 1
REMARK VINA RESULT:    -7.056      0.000      0.000
REMARK INTER + INTRA:         -11.513
REMARK INTER:                 -10.355
REMARK INTRA:                  -1.157
REMARK UNBOUND:                -1.157
REMARK  8 active torsions:
REMARK  status: ('A' for Active; 'I' for Inactive)
REMARK    1  A    between atoms: P_1  and  O3'_9 
REMARK    2  A    between atoms: PA_2  and  O5'_5 
REMARK    3  A    between atoms: PA_2  and  O3A_23 
REMARK    4  A    between atoms: PB_3  and  O3A_23 
REMARK    5  A    between atoms: C5'_4  and  O5'_5 
REMARK    6  A    between atoms: C5'_4  and  C4'_6 
REMARK    7  A    between atoms: C3'_8  and  O3'_9 
REMARK    8  A    between atoms: C1'_12  and  N9_31 
ROOT
HETATM    1  C4' PAP A 125      38.235   2.287  24.149  1.00 30.66     0.178 C 
HETATM    2  O4' PAP A 125      37.670   0.972  24.104  1.00 30.64    -0.331 OA
HETATM    3  C3' PAP A 125      39.742   2.137  23.804  1.00 32.01     0.192 C 
HETATM    4  C2' PAP A 125      39.742   0.796  23.081  1.00 31.03     0.231 C 
HETATM    5  O2' PAP A 125      41.062   0.208  23.084  1.00 29.14    -0.216 OA
HETATM    6  C1' PAP A 125      38.774   0.083  24.045  1.00 29.59     0.241 C 
ENDROOT
BRANCH   1   7
HETATM    7  C5' PAP A 125      37.474   3.092  23.137  1.00 29.07     0.187 C 
BRANCH   7   8
HETATM    8  O5' PAP A 125      36.246   3.420  23.758  1.00 30.13    -0.268 OA
BRANCH   8   9
HETATM    9  PA  PAP A 125      36.127   4.711  24.742  1.00 31.22     0.419 P 
HETATM   10  O1A PAP A 125      35.736   4.193  26.086  1.00 32.37    -0.624 OA
HETATM   11  O2A PAP A 125      37.372   5.518  24.628  1.00 32.57    -0.624 OA
BRANCH   9  12
HETATM   12  O3A PAP A 125      34.720   5.538  24.199  1.00 29.92    -0.173 OA
BRANCH  12  13
HETATM   13  PB  PAP A 125      34.114   7.068  24.239  1.00 26.94     0.431 P 
HETATM   14  O1B PAP A 125      32.703   6.917  24.651  1.00 24.20    -0.616 OA
HETATM   15  O2B PAP A 125      34.988   7.763  25.243  1.00 26.86    -0.616 OA
HETATM   16  O3B PAP A 125      34.281   7.581  22.859  1.00 28.16    -0.616 OA
ENDBRANCH  12  13
ENDBRANCH   9  12
ENDBRANCH   8   9
ENDBRANCH   7   8
ENDBRANCH   1   7
BRANCH   3  17
HETATM   17  O3' PAP A 125      40.517   2.077  25.035  1.00 36.20    -0.261 OA
BRANCH  17  18
HETATM   18  P   PAP A 125      41.577   3.344  25.465  1.00 39.68     0.423 P 
HETATM   19  O1  PAP A 125      42.744   3.031  24.603  1.00 40.50    -0.617 OA
HETATM   20  O2  PAP A 125      40.810   4.554  25.075  1.00 39.38    -0.617 OA
HETATM   21  O3  PAP A 125      41.780   3.236  26.943  1.00 40.59    -0.617 OA
ENDBRANCH  17  18
ENDBRANCH   3  17
BRANCH   6  22
HETATM   22  N9  PAP A 125      38.190  -1.195  23.579  1.00 29.22    -0.270 N 
HETATM   23  C4  PAP A 125      38.733  -2.507  23.529  1.00 29.28     0.170 A 
HETATM   24  N3  PAP A 125      39.987  -2.962  23.887  1.00 29.66    -0.205 NA
HETATM   25  C5  PAP A 125      37.717  -3.300  23.009  1.00 29.93     0.155 A 
HETATM   26  C2  PAP A 125      40.099  -4.290  23.649  1.00 28.29     0.202 A 
HETATM   27  N1  PAP A 125      39.221  -5.175  23.153  1.00 27.66    -0.202 NA
HETATM   28  C6  PAP A 125      37.983  -4.724  22.820  1.00 28.82     0.206 A 
HETATM   29  N6  PAP A 125      37.037  -5.588  22.404  1.00 26.39    -0.125 N 
HETATM   30  N7  PAP A 125      36.565  -2.494  22.740  1.00 30.19    -0.219 NA
HETATM   31  C8  PAP A 125      36.910  -1.292  23.093  1.00 28.80     0.182 A 
ENDBRANCH   6  22
TORSDOF 8
ENDMDL
MODEL 2
REMARK VINA RESULT:    -6.776      3.347      5.654
REMARK INTER + INTRA:         -11.103
REMARK INTER:                  -9.788
REMARK INTRA:                  -1.314
REMARK UNBOUND:                -1.157
REMARK  8 active torsions:
REMARK  status: ('A' for Active; 'I' for Inactive)
REMARK    1  A    between atoms: P_1  and  O3'_9 
REMARK    2  A    between atoms: PA_2  and  O5'_5 
REMARK    3  A    between atoms: PA_2  and  O3A_23 
REMARK    4  A    between atoms: PB_3  and  O3A_23 
REMARK    5  A    between atoms: C5'_4  and  O5'_5 
REMARK    6  A    between atoms: C5'_4  and  C4'_6 
REMARK    7  A    between atoms: C3'_8  and  O3'_9 
REMARK    8  A    between atoms: C1'_12  and  N9_31 
ROOT
HETATM    1  C4' PAP A 125      36.899   5.569  22.961  1.00 30.66     0.178 C 
HETATM    2  O4' PAP A 125      37.197   4.177  22.808  1.00 30.64    -0.331 OA
HETATM    3  C3' PAP A 125      36.286   5.741  24.377  1.00 32.01     0.192 C 
HETATM    4  C2' PAP A 125      36.798   4.485  25.071  1.00 31.03     0.231 C 
HETATM    5  O2' PAP A 125      35.989   4.166  26.225  1.00 29.14    -0.216 OA
HETATM    6  C1' PAP A 125      36.549   3.526  23.889  1.00 29.59     0.241 C 
ENDROOT
BRANCH   1   7
HETATM    7  C5' PAP A 125      38.208   6.286  22.792  1.00 29.07     0.187 C 
BRANCH   7   8
HETATM    8  O5' PAP A 125      38.088   7.477  23.545  1.00 30.13    -0.268 OA
BRANCH   8   9
HETATM    9  PA  PAP A 125      38.325   8.931  22.851  1.00 31.22     0.419 P 
HETATM   10  O1A PAP A 125      39.076   9.761  23.839  1.00 32.37    -0.624 OA
HETATM   11  O2A PAP A 125      38.917   8.727  21.501  1.00 32.57    -0.624 OA
BRANCH   9  12
HETATM   12  O3A PAP A 125      36.765   9.652  22.816  1.00 29.92    -0.173 OA
BRANCH  12  13
HETATM   13  PB  PAP A 125      35.844  10.514  21.759  1.00 26.94     0.431 P 
HETATM   14  O1B PAP A 125      36.664  11.688  21.396  1.00 24.20    -0.616 OA
HETATM   15  O2B PAP A 125      35.604   9.546  20.635  1.00 26.86    -0.616 OA
HETATM   16  O3B PAP A 125      34.615  10.855  22.512  1.00 28.16    -0.616 OA
ENDBRANCH  12  13
ENDBRANCH   9  12
ENDBRANCH   8   9
ENDBRANCH   7   8
ENDBRANCH   1   7
BRANCH   3  17
HETATM   17  O3' PAP A 125      34.833   5.739  24.279  1.00 36.20    -0.261 OA
BRANCH  17  18
HETATM   18  P   PAP A 125      33.956   7.203  24.245  1.00 39.68     0.423 P 
HETATM   19  O1  PAP A 125      34.801   8.050  25.122  1.00 40.50    -0.617 OA
HETATM   20  O2  PAP A 125      33.982   7.562  22.804  1.00 39.38    -0.617 OA
HETATM   21  O3  PAP A 125      32.582   6.879  24.738  1.00 40.59    -0.617 OA
ENDBRANCH  17  18
ENDBRANCH   3  17
BRANCH   6  22
HETATM   22  N9  PAP A 125      37.200   2.198  23.960  1.00 29.22    -0.270 N 
HETATM   23  C4  PAP A 125      38.539   1.800  23.706  1.00 29.28     0.170 A 
HETATM   24  N3  PAP A 125      39.624   2.549  23.294  1.00 29.66    -0.205 NA
HETATM   25  C5  PAP A 125      38.563   0.431  23.947  1.00 29.93     0.155 A 
HETATM   26  C2  PAP A 125      40.718   1.764  23.144  1.00 28.29     0.202 A 
HETATM   27  N1  PAP A 125      40.890   0.447  23.331  1.00 27.66    -0.202 NA
HETATM   28  C6  PAP A 125      39.823  -0.281  23.753  1.00 28.82     0.206 A 
HETATM   29  N6  PAP A 125      39.967  -1.589  24.043  1.00 26.39    -0.125 N 
HETATM   30  N7  PAP A 125      37.260  -0.012  24.342  1.00 30.19    -0.219 NA
HETATM   31  C8  PAP A 125      36.525   1.061  24.327  1.00 28.80     0.182 A 
ENDBRANCH   6  22
TORSDOF 8
ENDMDL
MODEL 3
REMARK VINA RESULT:    -6.760      3.313      6.168
REMARK INTER + INTRA:         -11.078
REMARK INTER:                  -9.750
REMARK INTRA:                  -1.329
REMARK UNBOUND:                -1.157
REMARK  8 active torsions:
REMARK  status: ('A' for Active; 'I' for Inactive)
REMARK    1  A    between atoms: P_1  and  O3'_9 
REMARK    2  A    between atoms: PA_2  and  O5'_5 
REMARK    3  A    between atoms: PA_2  and  O3A_23 
REMARK    4  A    between atoms: PB_3  and  O3A_23 
REMARK    5  A    between atoms: C5'_4  and  O5'_5 
REMARK    6  A    between atoms: C5'_4  and  C4'_6 
REMARK    7  A    between atoms: C3'_8  and  O3'_9 
REMARK    8  A    between atoms: C1'_12  and  N9_31 
ROOT
HETATM    1  C4' PAP A 125      36.948   5.698  23.054  1.00 30.66     0.178 C 
HETATM    2  O4' PAP A 125      37.265   4.313  22.881  1.00 30.64    -0.331 OA
HETATM    3  C3' PAP A 125      36.264   5.830  24.442  1.00 32.01     0.192 C 
HETATM    4  C2' PAP A 125      36.752   4.559  25.128  1.00 31.03     0.231 C 
HETATM    5  O2' PAP A 125      35.890   4.206  26.232  1.00 29.14    -0.216 OA
HETATM    6  C1' PAP A 125      36.570   3.629  23.912  1.00 29.59     0.241 C 
ENDROOT
BRANCH   1   7
HETATM    7  C5' PAP A 125      38.256   6.429  22.967  1.00 29.07     0.187 C 
BRANCH   7   8
HETATM    8  O5' PAP A 125      38.092   7.595  23.751  1.00 30.13    -0.268 OA
BRANCH   8   9
HETATM    9  PA  PAP A 125      38.102   9.071  23.062  1.00 31.22     0.419 P 
HETATM   10  O1A PAP A 125      38.346   8.863  21.605  1.00 32.37    -0.624 OA
HETATM   11  O2A PAP A 125      36.874   9.802  23.479  1.00 32.57    -0.624 OA
BRANCH   9  12
HETATM   12  O3A PAP A 125      39.557   9.797  23.620  1.00 29.92    -0.173 OA
BRANCH  12  13
HETATM   13  PB  PAP A 125      41.098   9.331  23.964  1.00 26.94     0.431 P 
HETATM   14  O1B PAP A 125      40.999   8.558  25.219  1.00 24.20    -0.616 OA
HETATM   15  O2B PAP A 125      41.495   8.525  22.761  1.00 26.86    -0.616 OA
HETATM   16  O3B PAP A 125      41.858  10.596  24.102  1.00 28.16    -0.616 OA
ENDBRANCH  12  13
ENDBRANCH   9  12
ENDBRANCH   8   9
ENDBRANCH   7   8
ENDBRANCH   1   7
BRANCH   3  17
HETATM   17  O3' PAP A 125      34.818   5.818  24.271  1.00 36.20    -0.261 OA
BRANCH  17  18
HETATM   18  P   PAP A 125      33.933   7.277  24.207  1.00 39.68     0.423 P 
HETATM   19  O1  PAP A 125      32.593   6.805  24.634  1.00 40.50    -0.617 OA
HETATM   20  O2  PAP A 125      34.645   8.131  25.192  1.00 39.38    -0.617 OA
HETATM   21  O3  PAP A 125      34.058   7.781  22.805  1.00 40.59    -0.617 OA
ENDBRANCH  17  18
ENDBRANCH   3  17
BRANCH   6  22
HETATM   22  N9  PAP A 125      37.229   2.305  23.981  1.00 29.22    -0.270 N 
HETATM   23  C4  PAP A 125      38.579   1.921  23.767  1.00 29.28     0.170 A 
HETATM   24  N3  PAP A 125      39.672   2.685  23.409  1.00 29.66    -0.205 NA
HETATM   25  C5  PAP A 125      38.605   0.548  23.985  1.00 29.93     0.155 A 
HETATM   26  C2  PAP A 125      40.776   1.911  23.283  1.00 28.29     0.202 A 
HETATM   27  N1  PAP A 125      40.952   0.592  23.452  1.00 27.66    -0.202 NA
HETATM   28  C6  PAP A 125      39.876  -0.152  23.823  1.00 28.82     0.206 A 
HETATM   29  N6  PAP A 125      40.020  -1.463  24.094  1.00 26.39    -0.125 N 
HETATM   30  N7  PAP A 125      37.292   0.089  24.325  1.00 30.19    -0.219 NA
HETATM   31  C8  PAP A 125      36.550   1.156  24.304  1.00 28.80     0.182 A 
ENDBRANCH   6  22
TORSDOF 8
ENDMDL
MODEL 4
REMARK VINA RESULT:    -6.709      3.195      6.388
REMARK INTER + INTRA:         -11.005
REMARK INTER:                  -9.609
REMARK INTRA:                  -1.396
REMARK UNBOUND:                -1.157
REMARK  8 active torsions:
REMARK  status: ('A' for Active; 'I' for Inactive)
REMARK    1  A    between atoms: P_1  and  O3'_9 
REMARK    2  A    between atoms: PA_2  and  O5'_5 
REMARK    3  A    between atoms: PA_2  and  O3A_23 
REMARK    4  A    between atoms: PB_3  and  O3A_23 
REMARK    5  A    between atoms: C5'_4  and  O5'_5 
REMARK    6  A    between atoms: C5'_4  and  C4'_6 
REMARK    7  A    between atoms: C3'_8  and  O3'_9 
REMARK    8  A    between atoms: C1'_12  and  N9_31 
ROOT
HETATM    1  C4' PAP A 125      36.823   5.473  22.779  1.00 30.66     0.178 C 
HETATM    2  O4' PAP A 125      37.094   4.072  22.667  1.00 30.64    -0.331 OA
HETATM    3  C3' PAP A 125      36.343   5.720  24.235  1.00 32.01     0.192 C 
HETATM    4  C2' PAP A 125      36.906   4.491  24.939  1.00 31.03     0.231 C 
HETATM    5  O2' PAP A 125      36.204   4.238  26.176  1.00 29.14    -0.216 OA
HETATM    6  C1' PAP A 125      36.542   3.481  23.833  1.00 29.59     0.241 C 
ENDROOT
BRANCH   1   7
HETATM    7  C5' PAP A 125      38.116   6.165  22.457  1.00 29.07     0.187 C 
BRANCH   7   8
HETATM    8  O5' PAP A 125      38.674   5.442  21.377  1.00 30.13    -0.268 OA
BRANCH   8   9
HETATM    9  PA  PAP A 125      40.235   5.641  20.958  1.00 31.22     0.419 P 
HETATM   10  O1A PAP A 125      40.251   6.571  19.790  1.00 32.37    -0.624 OA
HETATM   11  O2A PAP A 125      41.014   6.012  22.171  1.00 32.57    -0.624 OA
BRANCH   9  12
HETATM   12  O3A PAP A 125      40.696   4.129  20.281  1.00 29.92    -0.173 OA
BRANCH  12  13
HETATM   13  PB  PAP A 125      40.159   3.102  19.112  1.00 26.94     0.431 P 
HETATM   14  O1B PAP A 125      40.832   1.816  19.386  1.00 24.20    -0.616 OA
HETATM   15  O2B PAP A 125      38.671   3.088  19.318  1.00 26.86    -0.616 OA
HETATM   16  O3B PAP A 125      40.569   3.730  17.834  1.00 28.16    -0.616 OA
ENDBRANCH  12  13
ENDBRANCH   9  12
ENDBRANCH   8   9
ENDBRANCH   7   8
ENDBRANCH   1   7
BRANCH   3  17
HETATM   17  O3' PAP A 125      34.887   5.731  24.270  1.00 36.20    -0.261 OA
BRANCH  17  18
HETATM   18  P   PAP A 125      34.023   7.203  24.233  1.00 39.68     0.423 P 
HETATM   19  O1  PAP A 125      34.830   8.019  25.173  1.00 40.50    -0.617 OA
HETATM   20  O2  PAP A 125      34.120   7.600  22.806  1.00 39.38    -0.617 OA
HETATM   21  O3  PAP A 125      32.624   6.876  24.651  1.00 40.59    -0.617 OA
ENDBRANCH  17  18
ENDBRANCH   3  17
BRANCH   6  22
HETATM   22  N9  PAP A 125      37.186   2.149  23.908  1.00 29.22    -0.270 N 
HETATM   23  C4  PAP A 125      38.510   1.735  23.607  1.00 29.28     0.170 A 
HETATM   24  N3  PAP A 125      39.582   2.464  23.132  1.00 29.66    -0.205 NA
HETATM   25  C5  PAP A 125      38.534   0.372  23.880  1.00 29.93     0.155 A 
HETATM   26  C2  PAP A 125      40.662   1.667  22.954  1.00 28.29     0.202 A 
HETATM   27  N1  PAP A 125      40.833   0.353  23.165  1.00 27.66    -0.202 NA
HETATM   28  C6  PAP A 125      39.779  -0.356  23.650  1.00 28.82     0.206 A 
HETATM   29  N6  PAP A 125      39.926  -1.657  23.965  1.00 26.39    -0.125 N 
HETATM   30  N7  PAP A 125      37.246  -0.051  24.340  1.00 30.19    -0.219 NA
HETATM   31  C8  PAP A 125      36.519   1.027  24.331  1.00 28.80     0.182 A 
ENDBRANCH   6  22
TORSDOF 8
ENDMDL
MODEL 5
REMARK VINA RESULT:    -6.702      2.710      4.165
REMARK INTER + INTRA:         -10.993
REMARK INTER:                  -9.652
REMARK INTRA:                  -1.341
REMARK UNBOUND:                -1.157
REMARK  8 active torsions:
REMARK  status: ('A' for Active; 'I' for Inactive)
REMARK    1  A    between atoms: P_1  and  O3'_9 
REMARK    2  A    between atoms: PA_2  and  O5'_5 
REMARK    3  A    between atoms: PA_2  and  O3A_23 
REMARK    4  A    between atoms: PB_3  and  O3A_23 
REMARK    5  A    between atoms: C5'_4  and  O5'_5 
REMARK    6  A    between atoms: C5'_4  and  C4'_6 
REMARK    7  A    between atoms: C3'_8  and  O3'_9 
REMARK    8  A    between atoms: C1'_12  and  N9_31 
ROOT
HETATM    1  C4' PAP A 125      36.846   5.046  24.208  1.00 30.66     0.178 C 
HETATM    2  O4' PAP A 125      37.112   3.667  24.486  1.00 30.64    -0.331 OA
HETATM    3  C3' PAP A 125      37.527   5.368  22.850  1.00 32.01     0.192 C 
HETATM    4  C2' PAP A 125      37.661   3.971  22.255  1.00 31.03     0.231 C 
HETATM    5  O2' PAP A 125      38.680   3.943  21.231  1.00 29.14    -0.216 OA
HETATM    6  C1' PAP A 125      38.108   3.274  23.556  1.00 29.59     0.241 C 
ENDROOT
BRANCH   1   7
HETATM    7  C5' PAP A 125      35.350   5.171  24.164  1.00 29.07     0.187 C 
BRANCH   7   8
HETATM    8  O5' PAP A 125      35.087   6.274  23.319  1.00 30.13    -0.268 OA
BRANCH   8   9
HETATM    9  PA  PAP A 125      34.220   7.546  23.852  1.00 31.22     0.419 P 
HETATM   10  O1A PAP A 125      33.851   8.348  22.649  1.00 32.37    -0.624 OA
HETATM   11  O2A PAP A 125      33.129   7.047  24.733  1.00 32.57    -0.624 OA
BRANCH   9  12
HETATM   12  O3A PAP A 125      35.364   8.536  24.668  1.00 29.92    -0.173 OA
BRANCH  12  13
HETATM   13  PB  PAP A 125      35.354   9.734  25.796  1.00 26.94     0.431 P 
HETATM   14  O1B PAP A 125      36.325  10.735  25.310  1.00 24.20    -0.616 OA
HETATM   15  O2B PAP A 125      33.925  10.198  25.799  1.00 26.86    -0.616 OA
HETATM   16  O3B PAP A 125      35.759   9.073  27.059  1.00 28.16    -0.616 OA
ENDBRANCH  12  13
ENDBRANCH   9  12
ENDBRANCH   8   9
ENDBRANCH   7   8
ENDBRANCH   1   7
BRANCH   3  17
HETATM   17  O3' PAP A 125      38.831   5.968  23.094  1.00 36.20    -0.261 OA
BRANCH  17  18
HETATM   18  P   PAP A 125      39.031   7.664  23.074  1.00 39.68     0.423 P 
HETATM   19  O1  PAP A 125      37.764   8.082  22.425  1.00 40.50    -0.617 OA
HETATM   20  O2  PAP A 125      39.141   7.994  24.517  1.00 39.38    -0.617 OA
HETATM   21  O3  PAP A 125      40.296   7.926  22.320  1.00 40.59    -0.617 OA
ENDBRANCH  17  18
ENDBRANCH   3  17
BRANCH   6  22
HETATM   22  N9  PAP A 125      38.059   1.795  23.570  1.00 29.22    -0.270 N 
HETATM   23  C4  PAP A 125      38.803   0.829  22.840  1.00 29.28     0.170 A 
HETATM   24  N3  PAP A 125      39.782   1.002  21.883  1.00 29.66    -0.205 NA
HETATM   25  C5  PAP A 125      38.330  -0.401  23.281  1.00 29.93     0.155 A 
HETATM   26  C2  PAP A 125      40.213  -0.194  21.418  1.00 28.29     0.202 A 
HETATM   27  N1  PAP A 125      39.853  -1.446  21.737  1.00 27.66    -0.202 NA
HETATM   28  C6  PAP A 125      38.901  -1.610  22.694  1.00 28.82     0.206 A 
HETATM   29  N6  PAP A 125      38.571  -2.846  23.115  1.00 26.39    -0.125 N 
HETATM   30  N7  PAP A 125      37.309  -0.202  24.265  1.00 30.19    -0.219 NA
HETATM   31  C8  PAP A 125      37.206   1.089  24.381  1.00 28.80     0.182 A 
ENDBRANCH   6  22
TORSDOF 8
ENDMDL
MODEL 6
REMARK VINA RESULT:    -6.640      4.622      7.398
REMARK INTER + INTRA:         -10.903
REMARK INTER:                  -9.555
REMARK INTRA:                  -1.348
REMARK UNBOUND:                -1.157
REMARK  8 active torsions:
REMARK  status: ('A' for Active; 'I' for Inactive)
REMARK    1  A    between atoms: P_1  and  O3'_9 
REMARK    2  A    between atoms: PA_2  and  O5'_5 
REMARK    3  A    between atoms: PA_2  and  O3A_23 
REMARK    4  A    between atoms: PB_3  and  O3A_23 
REMARK    5  A    between atoms: C5'_4  and  O5'_5 
REMARK    6  A    between atoms: C5'_4  and  C4'_6 
REMARK    7  A    between atoms: C3'_8  and  O3'_9 
REMARK    8  A    between atoms: C1'_12  and  N9_31 
ROOT
HETATM    1  C4' PAP A 125      40.077   0.339  23.942  1.00 30.66     0.178 C 
HETATM    2  O4' PAP A 125      39.242   1.383  24.452  1.00 30.64    -0.331 OA
HETATM    3  C3' PAP A 125      39.130  -0.746  23.361  1.00 32.01     0.192 C 
HETATM    4  C2' PAP A 125      37.860   0.066  23.138  1.00 31.03     0.231 C 
HETATM    5  O2' PAP A 125      36.703  -0.796  23.062  1.00 29.14    -0.216 OA
HETATM    6  C1' PAP A 125      37.927   0.852  24.463  1.00 29.59     0.241 C 
ENDROOT
BRANCH   1   7
HETATM    7  C5' PAP A 125      40.946   0.983  22.901  1.00 29.07     0.187 C 
BRANCH   7   8
HETATM    8  O5' PAP A 125      42.259   0.529  23.169  1.00 30.13    -0.268 OA
BRANCH   8   9
HETATM    9  PA  PAP A 125      43.293   1.435  24.041  1.00 31.22     0.419 P 
HETATM   10  O1A PAP A 125      43.583   0.672  25.291  1.00 32.37    -0.624 OA
HETATM   11  O2A PAP A 125      44.435   1.831  23.172  1.00 32.57    -0.624 OA
BRANCH   9  12
HETATM   12  O3A PAP A 125      42.349   2.765  24.585  1.00 29.92    -0.173 OA
BRANCH  12  13
HETATM   13  PB  PAP A 125      42.435   3.927  25.748  1.00 26.94     0.431 P 
HETATM   14  O1B PAP A 125      43.875   4.220  25.899  1.00 24.20    -0.616 OA
HETATM   15  O2B PAP A 125      41.622   5.053  25.176  1.00 26.86    -0.616 OA
HETATM   16  O3B PAP A 125      41.822   3.311  26.948  1.00 28.16    -0.616 OA
ENDBRANCH  12  13
ENDBRANCH   9  12
ENDBRANCH   8   9
ENDBRANCH   7   8
ENDBRANCH   1   7
BRANCH   3  17
HETATM   17  O3' PAP A 125      38.924  -1.791  24.354  1.00 36.20    -0.261 OA
BRANCH  17  18
HETATM   18  P   PAP A 125      39.171  -3.434  23.960  1.00 39.68     0.423 P 
HETATM   19  O1  PAP A 125      40.247  -3.315  22.945  1.00 40.50    -0.617 OA
HETATM   20  O2  PAP A 125      39.589  -4.019  25.259  1.00 39.38    -0.617 OA
HETATM   21  O3  PAP A 125      37.850  -3.953  23.487  1.00 40.59    -0.617 OA
ENDBRANCH  17  18
ENDBRANCH   3  17
BRANCH   6  22
HETATM   22  N9  PAP A 125      37.052   2.041  24.577  1.00 29.22    -0.270 N 
HETATM   23  C4  PAP A 125      37.018   3.249  23.832  1.00 29.28     0.170 A 
HETATM   24  N3  PAP A 125      37.817   3.671  22.788  1.00 29.66    -0.205 NA
HETATM   25  C5  PAP A 125      35.977   3.987  24.386  1.00 29.93     0.155 A 
HETATM   26  C2  PAP A 125      37.457   4.912  22.382  1.00 28.29     0.202 A 
HETATM   27  N1  PAP A 125      36.493   5.738  22.817  1.00 27.66    -0.202 NA
HETATM   28  C6  PAP A 125      35.698   5.309  23.832  1.00 28.82     0.206 A 
HETATM   29  N6  PAP A 125      34.659   6.062  24.243  1.00 26.39    -0.125 N 
HETATM   30  N7  PAP A 125      35.378   3.249  25.457  1.00 30.19    -0.219 NA
HETATM   31  C8  PAP A 125      36.049   2.136  25.510  1.00 28.80     0.182 A 
ENDBRANCH   6  22
TORSDOF 8
ENDMDL
MODEL 7
REMARK VINA RESULT:    -6.583      2.738      3.558
REMARK INTER + INTRA:         -10.819
REMARK INTER:                  -9.317
REMARK INTRA:                  -1.502
REMARK UNBOUND:                -1.157
REMARK  8 active torsions:
REMARK  status: ('A' for Active; 'I' for Inactive)
REMARK    1  A    between atoms: P_1  and  O3'_9 
REMARK    2  A    between atoms: PA_2  and  O5'_5 
REMARK    3  A    between atoms: PA_2  and  O3A_23 
REMARK    4  A    between atoms: PB_3  and  O3A_23 
REMARK    5  A    between atoms: C5'_4  and  O5'_5 
REMARK    6  A    between atoms: C5'_4  and  C4'_6 
REMARK    7  A    between atoms: C3'_8  and  O3'_9 
REMARK    8  A    between atoms: C1'_12  and  N9_31 
ROOT
HETATM    1  C4' PAP A 125      39.298   5.004  23.601  1.00 30.66     0.178 C 
HETATM    2  O4' PAP A 125      39.162   3.638  24.007  1.00 30.64    -0.331 OA
HETATM    3  C3' PAP A 125      39.236   5.016  22.049  1.00 32.01     0.192 C 
HETATM    4  C2' PAP A 125      38.538   3.689  21.776  1.00 31.03     0.231 C 
HETATM    5  O2' PAP A 125      38.789   3.242  20.425  1.00 29.14    -0.216 OA
HETATM    6  C1' PAP A 125      39.315   2.869  22.825  1.00 29.59     0.241 C 
ENDROOT
BRANCH   1   7
HETATM    7  C5' PAP A 125      38.155   5.735  24.243  1.00 29.07     0.187 C 
BRANCH   7   8
HETATM    8  O5' PAP A 125      37.423   4.752  24.949  1.00 30.13    -0.268 OA
BRANCH   8   9
HETATM    9  PA  PAP A 125      35.820   4.581  24.720  1.00 31.22     0.419 P 
HETATM   10  O1A PAP A 125      35.613   4.389  23.255  1.00 32.37    -0.624 OA
HETATM   11  O2A PAP A 125      35.312   3.537  25.651  1.00 32.57    -0.624 OA
BRANCH   9  12
HETATM   12  O3A PAP A 125      35.173   6.145  25.022  1.00 29.92    -0.173 OA
BRANCH  12  13
HETATM   13  PB  PAP A 125      34.513   7.380  24.156  1.00 26.94     0.431 P 
HETATM   14  O1B PAP A 125      33.145   6.934  23.823  1.00 24.20    -0.616 OA
HETATM   15  O2B PAP A 125      34.581   8.544  25.102  1.00 26.86    -0.616 OA
HETATM   16  O3B PAP A 125      35.395   7.531  22.975  1.00 28.16    -0.616 OA
ENDBRANCH  12  13
ENDBRANCH   9  12
ENDBRANCH   8   9
ENDBRANCH   7   8
ENDBRANCH   1   7
BRANCH   3  17
HETATM   17  O3' PAP A 125      40.590   5.024  21.511  1.00 36.20    -0.261 OA
BRANCH  17  18
HETATM   18  P   PAP A 125      41.031   6.108  20.268  1.00 39.68     0.423 P 
HETATM   19  O1  PAP A 125      39.958   7.125  20.398  1.00 40.50    -0.617 OA
HETATM   20  O2  PAP A 125      42.381   6.556  20.694  1.00 39.38    -0.617 OA
HETATM   21  O3  PAP A 125      41.056   5.308  19.005  1.00 40.59    -0.617 OA
ENDBRANCH  17  18
ENDBRANCH   3  17
BRANCH   6  22
HETATM   22  N9  PAP A 125      38.762   1.541  23.177  1.00 29.22    -0.270 N 
HETATM   23  C4  PAP A 125      39.060   0.245  22.680  1.00 29.28     0.170 A 
HETATM   24  N3  PAP A 125      39.947  -0.147  21.698  1.00 29.66    -0.205 NA
HETATM   25  C5  PAP A 125      38.234  -0.616  23.395  1.00 29.93     0.155 A 
HETATM   26  C2  PAP A 125      39.897  -1.487  21.514  1.00 28.29     0.202 A 
HETATM   27  N1  PAP A 125      39.158  -2.433  22.115  1.00 27.66    -0.202 NA
HETATM   28  C6  PAP A 125      38.299  -2.043  23.094  1.00 28.82     0.206 A 
HETATM   29  N6  PAP A 125      37.604  -2.963  23.790  1.00 26.39    -0.125 N 
HETATM   30  N7  PAP A 125      37.438   0.136  24.318  1.00 30.19    -0.219 NA
HETATM   31  C8  PAP A 125      37.796   1.372  24.137  1.00 28.80     0.182 A 
ENDBRANCH   6  22
TORSDOF 8
ENDMDL
MODEL 8
REMARK VINA RESULT:    -6.556      1.420      2.295
REMARK INTER + INTRA:         -10.780
REMARK INTER:                  -9.521
REMARK INTRA:                  -1.258
REMARK UNBOUND:                -1.157
REMARK  8 active torsions:
REMARK  status: ('A' for Active; 'I' for Inactive)
REMARK    1  A    between atoms: P_1  and  O3'_9 
REMARK    2  A    between atoms: PA_2  and  O5'_5 
REMARK    3  A    between atoms: PA_2  and  O3A_23 
REMARK    4  A    between atoms: PB_3  and  O3A_23 
REMARK    5  A    between atoms: C5'_4  and  O5'_5 
REMARK    6  A    between atoms: C5'_4  and  C4'_6 
REMARK    7  A    between atoms: C3'_8  and  O3'_9 
REMARK    8  A    between atoms: C1'_12  and  N9_31 
ROOT
HETATM    1  C4' PAP A 125      38.076   1.999  24.439  1.00 30.66     0.178 C 
HETATM    2  O4' PAP A 125      38.391   0.619  24.652  1.00 30.64    -0.331 OA
HETATM    3  C3' PAP A 125      38.831   2.436  23.153  1.00 32.01     0.192 C 
HETATM    4  C2' PAP A 125      39.073   1.087  22.487  1.00 31.03     0.231 C 
HETATM    5  O2' PAP A 125      40.158   1.169  21.536  1.00 29.14    -0.216 OA
HETATM    6  C1' PAP A 125      39.465   0.331  23.772  1.00 29.59     0.241 C 
ENDROOT
BRANCH   1   7
HETATM    7  C5' PAP A 125      36.583   2.060  24.297  1.00 29.07     0.187 C 
BRANCH   7   8
HETATM    8  O5' PAP A 125      36.297   3.366  23.837  1.00 30.13    -0.268 OA
BRANCH   8   9
HETATM    9  PA  PAP A 125      36.226   4.620  24.874  1.00 31.22     0.419 P 
HETATM   10  O1A PAP A 125      35.766   4.069  26.182  1.00 32.37    -0.624 OA
HETATM   11  O2A PAP A 125      37.520   5.353  24.829  1.00 32.57    -0.624 OA
BRANCH   9  12
HETATM   12  O3A PAP A 125      34.888   5.553  24.330  1.00 29.92    -0.173 OA
BRANCH  12  13
HETATM   13  PB  PAP A 125      34.599   7.095  23.833  1.00 26.94     0.431 P 
HETATM   14  O1B PAP A 125      35.033   7.953  24.955  1.00 24.20    -0.616 OA
HETATM   15  O2B PAP A 125      35.431   7.222  22.589  1.00 26.86    -0.616 OA
HETATM   16  O3B PAP A 125      33.141   7.146  23.573  1.00 28.16    -0.616 OA
ENDBRANCH  12  13
ENDBRANCH   9  12
ENDBRANCH   8   9
ENDBRANCH   7   8
ENDBRANCH   1   7
BRANCH   3  17
HETATM   17  O3' PAP A 125      40.084   3.078  23.523  1.00 36.20    -0.261 OA
BRANCH  17  18
HETATM   18  P   PAP A 125      40.546   4.565  22.821  1.00 39.68     0.423 P 
HETATM   19  O1  PAP A 125      41.077   5.277  24.010  1.00 40.50    -0.617 OA
HETATM   20  O2  PAP A 125      41.565   4.150  21.825  1.00 39.38    -0.617 OA
HETATM   21  O3  PAP A 125      39.313   5.130  22.190  1.00 40.59    -0.617 OA
ENDBRANCH  17  18
ENDBRANCH   3  17
BRANCH   6  22
HETATM   22  N9  PAP A 125      39.489  -1.148  23.694  1.00 29.22    -0.270 N 
HETATM   23  C4  PAP A 125      38.471  -2.081  23.361  1.00 29.28     0.170 A 
HETATM   24  N3  PAP A 125      37.147  -1.870  23.031  1.00 29.66    -0.205 NA
HETATM   25  C5  PAP A 125      39.082  -3.327  23.445  1.00 29.93     0.155 A 
HETATM   26  C2  PAP A 125      36.516  -3.048  22.812  1.00 28.29     0.202 A 
HETATM   27  N1  PAP A 125      36.964  -4.311  22.860  1.00 27.66    -0.202 NA
HETATM   28  C6  PAP A 125      38.273  -4.511  23.168  1.00 28.82     0.206 A 
HETATM   29  N6  PAP A 125      38.793  -5.753  23.140  1.00 26.39    -0.125 N 
HETATM   30  N7  PAP A 125      40.453  -3.169  23.826  1.00 30.19    -0.219 NA
HETATM   31  C8  PAP A 125      40.617  -1.885  23.952  1.00 28.80     0.182 A 
ENDBRANCH   6  22
TORSDOF 8
ENDMDL
MODEL 9
REMARK VINA RESULT:    -6.547      2.230      4.038
REMARK INTER + INTRA:         -10.767
REMARK INTER:                  -9.347
REMARK INTRA:                  -1.419
REMARK UNBOUND:                -1.157
REMARK  8 active torsions:
REMARK  status: ('A' for Active; 'I' for Inactive)
REMARK    1  A    between atoms: P_1  and  O3'_9 
REMARK    2  A    between atoms: PA_2  and  O5'_5 
REMARK    3  A    between atoms: PA_2  and  O3A_23 
REMARK    4  A    between atoms: PB_3  and  O3A_23 
REMARK    5  A    between atoms: C5'_4  and  O5'_5 
REMARK    6  A    between atoms: C5'_4  and  C4'_6 
REMARK    7  A    between atoms: C3'_8  and  O3'_9 
REMARK    8  A    between atoms: C1'_12  and  N9_31 
ROOT
HETATM    1  C4' PAP A 125      38.584   2.471  22.296  1.00 30.66     0.178 C 
HETATM    2  O4' PAP A 125      38.661   1.049  22.150  1.00 30.64    -0.331 OA
HETATM    3  C3' PAP A 125      38.107   2.745  23.749  1.00 32.01     0.192 C 
HETATM    4  C2' PAP A 125      38.478   1.432  24.428  1.00 31.03     0.231 C 
HETATM    5  O2' PAP A 125      37.718   1.247  25.643  1.00 29.14    -0.216 OA
HETATM    6  C1' PAP A 125      38.006   0.511  23.287  1.00 29.59     0.241 C 
ENDROOT
BRANCH   1   7
HETATM    7  C5' PAP A 125      39.967   2.985  22.020  1.00 29.07     0.187 C 
BRANCH   7   8
HETATM    8  O5' PAP A 125      40.055   4.221  22.702  1.00 30.13    -0.268 OA
BRANCH   8   9
HETATM    9  PA  PAP A 125      40.042   5.629  21.883  1.00 31.22     0.419 P 
HETATM   10  O1A PAP A 125      41.456   6.102  21.820  1.00 32.37    -0.624 OA
HETATM   11  O2A PAP A 125      39.302   5.434  20.607  1.00 32.57    -0.624 OA
BRANCH   9  12
HETATM   12  O3A PAP A 125      39.287   6.743  22.953  1.00 29.92    -0.173 OA
BRANCH  12  13
HETATM   13  PB  PAP A 125      38.256   8.022  22.852  1.00 26.94     0.431 P 
HETATM   14  O1B PAP A 125      36.941   7.436  22.522  1.00 24.20    -0.616 OA
HETATM   15  O2B PAP A 125      38.340   8.645  24.217  1.00 26.86    -0.616 OA
HETATM   16  O3B PAP A 125      38.814   8.879  21.780  1.00 28.16    -0.616 OA
ENDBRANCH  12  13
ENDBRANCH   9  12
ENDBRANCH   8   9
ENDBRANCH   7   8
ENDBRANCH   1   7
BRANCH   3  17
HETATM   17  O3' PAP A 125      36.666   2.956  23.754  1.00 36.20    -0.261 OA
BRANCH  17  18
HETATM   18  P   PAP A 125      35.979   4.280  24.584  1.00 39.68     0.423 P 
HETATM   19  O1  PAP A 125      35.294   3.580  25.699  1.00 40.50    -0.617 OA
HETATM   20  O2  PAP A 125      37.173   5.073  24.974  1.00 39.38    -0.617 OA
HETATM   21  O3  PAP A 125      35.110   4.988  23.594  1.00 40.59    -0.617 OA
ENDBRANCH  17  18
ENDBRANCH   3  17
BRANCH   6  22
HETATM   22  N9  PAP A 125      38.458  -0.899  23.337  1.00 29.22    -0.270 N 
HETATM   23  C4  PAP A 125      37.756  -2.112  23.109  1.00 29.28     0.170 A 
HETATM   24  N3  PAP A 125      36.430  -2.324  22.792  1.00 29.66    -0.205 NA
HETATM   25  C5  PAP A 125      38.702  -3.116  23.287  1.00 29.93     0.155 A 
HETATM   26  C2  PAP A 125      36.168  -3.649  22.689  1.00 28.29     0.202 A 
HETATM   27  N1  PAP A 125      36.963  -4.719  22.837  1.00 27.66    -0.202 NA
HETATM   28  C6  PAP A 125      38.273  -4.503  23.132  1.00 28.82     0.206 A 
HETATM   29  N6  PAP A 125      39.131  -5.539  23.200  1.00 26.39    -0.125 N 
HETATM   30  N7  PAP A 125      39.967  -2.534  23.622  1.00 30.19    -0.219 NA
HETATM   31  C8  PAP A 125      39.751  -1.252  23.632  1.00 28.80     0.182 A 
ENDBRANCH   6  22
TORSDOF 8
ENDMDL
