MODEL 1
REMARK VINA RESULT:    -5.895      0.000      0.000
REMARK INTER + INTRA:         -10.137
REMARK INTER:                  -8.652
REMARK INTRA:                  -1.485
REMARK UNBOUND:                -1.485
REMARK  8 active torsions:
REMARK  status: ('A' for Active; 'I' for Inactive)
REMARK    1  A    between atoms: P_1  and  O3'_9 
REMARK    2  A    between atoms: PA_2  and  O5'_5 
REMARK    3  A    between atoms: PA_2  and  O3A_23 
REMARK    4  A    between atoms: PB_3  and  O3A_23 
REMARK    5  A    between atoms: C5'_4  and  O5'_5 
REMARK    6  A    between atoms: C5'_4  and  C4'_6 
REMARK    7  A    between atoms: C3'_8  and  O3'_9 
REMARK    8  A    between atoms: C1'_12  and  N9_31 
ROOT
HETATM    1  C4' PAP A 125      41.761 -10.252  32.348  1.00 30.66     0.178 C 
HETATM    2  O4' PAP A 125      42.118  -9.010  31.733  1.00 30.64    -0.331 OA
HETATM    3  C3' PAP A 125      40.947 -11.054  31.296  1.00 32.01     0.192 C 
HETATM    4  C2' PAP A 125      41.391 -10.375  30.006  1.00 31.03     0.231 C 
HETATM    5  O2' PAP A 125      40.436 -10.604  28.947  1.00 29.14    -0.216 OA
HETATM    6  C1' PAP A 125      41.342  -8.933  30.548  1.00 29.59     0.241 C 
ENDROOT
BRANCH   1   7
HETATM    7  C5' PAP A 125      43.058 -10.911  32.719  1.00 29.07     0.187 C 
BRANCH   7   8
HETATM    8  O5' PAP A 125      44.072 -10.074  32.197  1.00 30.13    -0.268 OA
BRANCH   8   9
HETATM    9  PA  PAP A 125      45.281 -10.690  31.298  1.00 31.22     0.419 P 
HETATM   10  O1A PAP A 125      44.916 -12.105  30.998  1.00 32.37    -0.624 OA
HETATM   11  O2A PAP A 125      45.549  -9.770  30.159  1.00 32.57    -0.624 OA
BRANCH   9  12
HETATM   12  O3A PAP A 125      46.601 -10.832  32.390  1.00 29.92    -0.173 OA
BRANCH  12  13
HETATM   13  PB  PAP A 125      46.830 -11.116  33.995  1.00 26.94     0.431 P 
HETATM   14  O1B PAP A 125      46.455  -9.856  34.670  1.00 24.20    -0.616 OA
HETATM   15  O2B PAP A 125      45.917 -12.274  34.278  1.00 26.86    -0.616 OA
HETATM   16  O3B PAP A 125      48.267 -11.456  34.123  1.00 28.16    -0.616 OA
ENDBRANCH  12  13
ENDBRANCH   9  12
ENDBRANCH   8   9
ENDBRANCH   7   8
ENDBRANCH   1   7
BRANCH   3  17
HETATM   17  O3' PAP A 125      39.524 -10.860  31.535  1.00 36.20    -0.261 OA
BRANCH  17  18
HETATM   18  P   PAP A 125      38.535 -12.159  32.033  1.00 39.68     0.423 P 
HETATM   19  O1  PAP A 125      38.141 -12.723  30.718  1.00 40.50    -0.617 OA
HETATM   20  O2  PAP A 125      39.472 -12.995  32.824  1.00 39.38    -0.617 OA
HETATM   21  O3  PAP A 125      37.446 -11.561  32.865  1.00 40.59    -0.617 OA
ENDBRANCH  17  18
ENDBRANCH   3  17
BRANCH   6  22
HETATM   22  N9  PAP A 125      42.014  -7.892  29.737  1.00 29.22    -0.270 N 
HETATM   23  C4  PAP A 125      41.897  -6.477  29.751  1.00 29.28     0.170 A 
HETATM   24  N3  PAP A 125      41.094  -5.661  30.523  1.00 29.66    -0.205 NA
HETATM   25  C5  PAP A 125      42.782  -6.030  28.776  1.00 29.93     0.155 A 
HETATM   26  C2  PAP A 125      41.276  -4.360  30.192  1.00 28.29     0.202 A 
HETATM   27  N1  PAP A 125      42.077  -3.785  29.283  1.00 27.66    -0.202 NA
HETATM   28  C6  PAP A 125      42.878  -4.593  28.539  1.00 28.82     0.206 A 
HETATM   29  N6  PAP A 125      43.766  -4.059  27.678  1.00 26.39    -0.125 N 
HETATM   30  N7  PAP A 125      43.435  -7.150  28.167  1.00 30.19    -0.219 NA
HETATM   31  C8  PAP A 125      42.943  -8.191  28.771  1.00 28.80     0.182 A 
ENDBRANCH   6  22
TORSDOF 8
ENDMDL
MODEL 2
REMARK VINA RESULT:    -5.732     16.709     19.532
REMARK INTER + INTRA:          -9.898
REMARK INTER:                  -8.630
REMARK INTRA:                  -1.269
REMARK UNBOUND:                -1.485
REMARK  8 active torsions:
REMARK  status: ('A' for Active; 'I' for Inactive)
REMARK    1  A    between atoms: P_1  and  O3'_9 
REMARK    2  A    between atoms: PA_2  and  O5'_5 
REMARK    3  A    between atoms: PA_2  and  O3A_23 
REMARK    4  A    between atoms: PB_3  and  O3A_23 
REMARK    5  A    between atoms: C5'_4  and  O5'_5 
REMARK    6  A    between atoms: C5'_4  and  C4'_6 
REMARK    7  A    between atoms: C3'_8  and  O3'_9 
REMARK    8  A    between atoms: C1'_12  and  N9_31 
ROOT
HETATM    1  C4' PAP A 125      28.969  -3.268  40.694  1.00 30.66     0.178 C 
HETATM    2  O4' PAP A 125      30.027  -2.792  41.533  1.00 30.64    -0.331 OA
HETATM    3  C3' PAP A 125      29.120  -4.812  40.618  1.00 32.01     0.192 C 
HETATM    4  C2' PAP A 125      29.949  -5.085  41.867  1.00 31.03     0.231 C 
HETATM    5  O2' PAP A 125      30.624  -6.359  41.770  1.00 29.14    -0.216 OA
HETATM    6  C1' PAP A 125      30.910  -3.891  41.697  1.00 29.59     0.241 C 
ENDROOT
BRANCH   1   7
HETATM    7  C5' PAP A 125      27.695  -2.830  41.357  1.00 29.07     0.187 C 
BRANCH   7   8
HETATM    8  O5' PAP A 125      27.959  -1.538  41.870  1.00 30.13    -0.268 OA
BRANCH   8   9
HETATM    9  PA  PAP A 125      27.394  -0.210  41.117  1.00 31.22     0.419 P 
HETATM   10  O1A PAP A 125      28.579   0.641  40.801  1.00 32.37    -0.624 OA
HETATM   11  O2A PAP A 125      26.507  -0.633  39.999  1.00 32.57    -0.624 OA
BRANCH   9  12
HETATM   12  O3A PAP A 125      26.577   0.669  42.348  1.00 29.92    -0.173 OA
BRANCH  12  13
HETATM   13  PB  PAP A 125      26.970   1.557  43.677  1.00 26.94     0.431 P 
HETATM   14  O1B PAP A 125      25.690   2.109  44.168  1.00 24.20    -0.616 OA
HETATM   15  O2B PAP A 125      27.611   0.552  44.591  1.00 26.86    -0.616 OA
HETATM   16  O3B PAP A 125      27.913   2.587  43.183  1.00 28.16    -0.616 OA
ENDBRANCH  12  13
ENDBRANCH   9  12
ENDBRANCH   8   9
ENDBRANCH   7   8
ENDBRANCH   1   7
BRANCH   3  17
HETATM   17  O3' PAP A 125      29.848  -5.168  39.408  1.00 36.20    -0.261 OA
BRANCH  17  18
HETATM   18  P   PAP A 125      29.263  -6.381  38.360  1.00 39.68     0.423 P 
HETATM   19  O1  PAP A 125      28.603  -5.552  37.321  1.00 40.50    -0.617 OA
HETATM   20  O2  PAP A 125      30.509  -7.063  37.926  1.00 39.38    -0.617 OA
HETATM   21  O3  PAP A 125      28.379  -7.258  39.188  1.00 40.59    -0.617 OA
ENDBRANCH  17  18
ENDBRANCH   3  17
BRANCH   6  22
HETATM   22  N9  PAP A 125      31.735  -3.526  42.871  1.00 29.22    -0.270 N 
HETATM   23  C4  PAP A 125      31.372  -3.002  44.140  1.00 29.28     0.170 A 
HETATM   24  N3  PAP A 125      30.130  -2.659  44.636  1.00 29.66    -0.205 NA
HETATM   25  C5  PAP A 125      32.569  -2.874  44.835  1.00 29.93     0.155 A 
HETATM   26  C2  PAP A 125      30.236  -2.166  45.893  1.00 28.29     0.202 A 
HETATM   27  N1  PAP A 125      31.307  -1.979  46.679  1.00 27.66    -0.202 NA
HETATM   28  C6  PAP A 125      32.525  -2.335  46.192  1.00 28.82     0.206 A 
HETATM   29  N6  PAP A 125      33.618  -2.253  46.974  1.00 26.39    -0.125 N 
HETATM   30  N7  PAP A 125      33.655  -3.309  44.009  1.00 30.19    -0.219 NA
HETATM   31  C8  PAP A 125      33.099  -3.672  42.892  1.00 28.80     0.182 A 
ENDBRANCH   6  22
TORSDOF 8
ENDMDL
MODEL 3
REMARK VINA RESULT:    -5.628     10.713     13.109
REMARK INTER + INTRA:          -9.745
REMARK INTER:                  -8.340
REMARK INTRA:                  -1.405
REMARK UNBOUND:                -1.485
REMARK  8 active torsions:
REMARK  status: ('A' for Active; 'I' for Inactive)
REMARK    1  A    between atoms: P_1  and  O3'_9 
REMARK    2  A    between atoms: PA_2  and  O5'_5 
REMARK    3  A    between atoms: PA_2  and  O3A_23 
REMARK    4  A    between atoms: PB_3  and  O3A_23 
REMARK    5  A    between atoms: C5'_4  and  O5'_5 
REMARK    6  A    between atoms: C5'_4  and  C4'_6 
REMARK    7  A    between atoms: C3'_8  and  O3'_9 
REMARK    8  A    between atoms: C1'_12  and  N9_31 
ROOT
HETATM    1  C4' PAP A 125      43.828  -6.557  42.377  1.00 30.66     0.178 C 
HETATM    2  O4' PAP A 125      43.019  -5.377  42.355  1.00 30.64    -0.331 OA
HETATM    3  C3' PAP A 125      45.111  -6.205  43.177  1.00 32.01     0.192 C 
HETATM    4  C2' PAP A 125      44.634  -4.996  43.973  1.00 31.03     0.231 C 
HETATM    5  O2' PAP A 125      45.753  -4.200  44.422  1.00 29.14    -0.216 OA
HETATM    6  C1' PAP A 125      43.856  -4.330  42.821  1.00 29.59     0.241 C 
ENDROOT
BRANCH   1   7
HETATM    7  C5' PAP A 125      42.990  -7.613  43.038  1.00 29.07     0.187 C 
BRANCH   7   8
HETATM    8  O5' PAP A 125      41.680  -7.428  42.537  1.00 30.13    -0.268 OA
BRANCH   8   9
HETATM    9  PA  PAP A 125      40.930  -8.611  41.707  1.00 31.22     0.419 P 
HETATM   10  O1A PAP A 125      41.897  -9.744  41.604  1.00 32.37    -0.624 OA
HETATM   11  O2A PAP A 125      39.603  -8.866  42.330  1.00 32.57    -0.624 OA
BRANCH   9  12
HETATM   12  O3A PAP A 125      40.830  -8.013  40.098  1.00 29.92    -0.173 OA
BRANCH  12  13
HETATM   13  PB  PAP A 125      41.650  -6.958  39.137  1.00 26.94     0.431 P 
HETATM   14  O1B PAP A 125      40.983  -7.031  37.821  1.00 24.20    -0.616 OA
HETATM   15  O2B PAP A 125      41.492  -5.644  39.847  1.00 26.86    -0.616 OA
HETATM   16  O3B PAP A 125      43.046  -7.456  39.126  1.00 28.16    -0.616 OA
ENDBRANCH  12  13
ENDBRANCH   9  12
ENDBRANCH   8   9
ENDBRANCH   7   8
ENDBRANCH   1   7
BRANCH   3  17
HETATM   17  O3' PAP A 125      46.175  -5.843  42.250  1.00 36.20    -0.261 OA
BRANCH  17  18
HETATM   18  P   PAP A 125      47.386  -6.969  41.826  1.00 39.68     0.423 P 
HETATM   19  O1  PAP A 125      46.735  -8.239  42.233  1.00 40.50    -0.617 OA
HETATM   20  O2  PAP A 125      47.517  -6.768  40.361  1.00 39.38    -0.617 OA
HETATM   21  O3  PAP A 125      48.613  -6.566  42.580  1.00 40.59    -0.617 OA
ENDBRANCH  17  18
ENDBRANCH   3  17
BRANCH   6  22
HETATM   22  N9  PAP A 125      42.917  -3.246  43.190  1.00 29.22    -0.270 N 
HETATM   23  C4  PAP A 125      42.153  -2.359  42.386  1.00 29.28     0.170 A 
HETATM   24  N3  PAP A 125      42.086  -2.242  41.012  1.00 29.66    -0.205 NA
HETATM   25  C5  PAP A 125      41.448  -1.569  43.287  1.00 29.93     0.155 A 
HETATM   26  C2  PAP A 125      41.248  -1.240  40.657  1.00 28.29     0.202 A 
HETATM   27  N1  PAP A 125      40.514  -0.399  41.402  1.00 27.66    -0.202 NA
HETATM   28  C6  PAP A 125      40.570  -0.532  42.754  1.00 28.82     0.206 A 
HETATM   29  N6  PAP A 125      39.783   0.226  43.542  1.00 26.39    -0.125 N 
HETATM   30  N7  PAP A 125      41.772  -1.958  44.626  1.00 30.19    -0.219 NA
HETATM   31  C8  PAP A 125      42.624  -2.931  44.493  1.00 28.80     0.182 A 
ENDBRANCH   6  22
TORSDOF 8
ENDMDL
MODEL 4
REMARK VINA RESULT:    -5.505     18.532     20.498
REMARK INTER + INTRA:          -9.565
REMARK INTER:                  -7.896
REMARK INTRA:                  -1.670
REMARK UNBOUND:                -1.485
REMARK  8 active torsions:
REMARK  status: ('A' for Active; 'I' for Inactive)
REMARK    1  A    between atoms: P_1  and  O3'_9 
REMARK    2  A    between atoms: PA_2  and  O5'_5 
REMARK    3  A    between atoms: PA_2  and  O3A_23 
REMARK    4  A    between atoms: PB_3  and  O3A_23 
REMARK    5  A    between atoms: C5'_4  and  O5'_5 
REMARK    6  A    between atoms: C5'_4  and  C4'_6 
REMARK    7  A    between atoms: C3'_8  and  O3'_9 
REMARK    8  A    between atoms: C1'_12  and  N9_31 
ROOT
HETATM    1  C4' PAP A 125      40.470   2.799  43.965  1.00 30.66     0.178 C 
HETATM    2  O4' PAP A 125      40.963   4.132  43.803  1.00 30.64    -0.331 OA
HETATM    3  C3' PAP A 125      41.589   1.992  44.678  1.00 32.01     0.192 C 
HETATM    4  C2' PAP A 125      42.397   3.117  45.314  1.00 31.03     0.231 C 
HETATM    5  O2' PAP A 125      43.738   2.678  45.623  1.00 29.14    -0.216 OA
HETATM    6  C1' PAP A 125      42.348   4.068  44.102  1.00 29.59     0.241 C 
ENDROOT
BRANCH   1   7
HETATM    7  C5' PAP A 125      39.218   2.924  44.783  1.00 29.07     0.187 C 
BRANCH   7   8
HETATM    8  O5' PAP A 125      38.919   4.306  44.811  1.00 30.13    -0.268 OA
BRANCH   8   9
HETATM    9  PA  PAP A 125      38.499   5.041  46.202  1.00 31.22     0.419 P 
HETATM   10  O1A PAP A 125      37.378   4.247  46.787  1.00 32.37    -0.624 OA
HETATM   11  O2A PAP A 125      39.723   5.251  47.022  1.00 32.57    -0.624 OA
BRANCH   9  12
HETATM   12  O3A PAP A 125      37.745   6.505  45.705  1.00 29.92    -0.173 OA
BRANCH  12  13
HETATM   13  PB  PAP A 125      38.205   8.001  45.196  1.00 26.94     0.431 P 
HETATM   14  O1B PAP A 125      38.690   7.809  43.814  1.00 24.20    -0.616 OA
HETATM   15  O2B PAP A 125      36.945   8.810  45.311  1.00 26.86    -0.616 OA
HETATM   16  O3B PAP A 125      39.262   8.420  46.146  1.00 28.16    -0.616 OA
ENDBRANCH  12  13
ENDBRANCH   9  12
ENDBRANCH   8   9
ENDBRANCH   7   8
ENDBRANCH   1   7
BRANCH   3  17
HETATM   17  O3' PAP A 125      42.374   1.271  43.685  1.00 36.20    -0.261 OA
BRANCH  17  18
HETATM   18  P   PAP A 125      42.210  -0.418  43.498  1.00 39.68     0.423 P 
HETATM   19  O1  PAP A 125      40.881  -0.636  44.123  1.00 40.50    -0.617 OA
HETATM   20  O2  PAP A 125      42.249  -0.586  42.023  1.00 39.38    -0.617 OA
HETATM   21  O3  PAP A 125      43.388  -1.030  44.184  1.00 40.59    -0.617 OA
ENDBRANCH  17  18
ENDBRANCH   3  17
BRANCH   6  22
HETATM   22  N9  PAP A 125      42.737   5.476  44.343  1.00 29.22    -0.270 N 
HETATM   23  C4  PAP A 125      44.015   6.094  44.402  1.00 29.28     0.170 A 
HETATM   24  N3  PAP A 125      45.274   5.544  44.269  1.00 29.66    -0.205 NA
HETATM   25  C5  PAP A 125      43.756   7.438  44.646  1.00 29.93     0.155 A 
HETATM   26  C2  PAP A 125      46.229   6.491  44.422  1.00 28.29     0.202 A 
HETATM   27  N1  PAP A 125      46.134   7.808  44.664  1.00 27.66    -0.202 NA
HETATM   28  C6  PAP A 125      44.892   8.347  44.776  1.00 28.82     0.206 A 
HETATM   29  N6  PAP A 125      44.741   9.677  44.928  1.00 26.39    -0.125 N 
HETATM   30  N7  PAP A 125      42.342   7.648  44.739  1.00 30.19    -0.219 NA
HETATM   31  C8  PAP A 125      41.818   6.473  44.555  1.00 28.80     0.182 A 
ENDBRANCH   6  22
TORSDOF 8
ENDMDL
MODEL 5
REMARK VINA RESULT:    -5.493     16.647     19.533
REMARK INTER + INTRA:          -9.546
REMARK INTER:                  -8.255
REMARK INTRA:                  -1.292
REMARK UNBOUND:                -1.485
REMARK  8 active torsions:
REMARK  status: ('A' for Active; 'I' for Inactive)
REMARK    1  A    between atoms: P_1  and  O3'_9 
REMARK    2  A    between atoms: PA_2  and  O5'_5 
REMARK    3  A    between atoms: PA_2  and  O3A_23 
REMARK    4  A    between atoms: PB_3  and  O3A_23 
REMARK    5  A    between atoms: C5'_4  and  O5'_5 
REMARK    6  A    between atoms: C5'_4  and  C4'_6 
REMARK    7  A    between atoms: C3'_8  and  O3'_9 
REMARK    8  A    between atoms: C1'_12  and  N9_31 
ROOT
HETATM    1  C4' PAP A 125      28.750  -3.078  40.715  1.00 30.66     0.178 C 
HETATM    2  O4' PAP A 125      29.728  -2.605  41.647  1.00 30.64    -0.331 OA
HETATM    3  C3' PAP A 125      28.911  -4.621  40.643  1.00 32.01     0.192 C 
HETATM    4  C2' PAP A 125      29.628  -4.900  41.958  1.00 31.03     0.231 C 
HETATM    5  O2' PAP A 125      30.312  -6.172  41.913  1.00 29.14    -0.216 OA
HETATM    6  C1' PAP A 125      30.596  -3.703  41.881  1.00 29.59     0.241 C 
ENDROOT
BRANCH   1   7
HETATM    7  C5' PAP A 125      27.422  -2.647  41.266  1.00 29.07     0.187 C 
BRANCH   7   8
HETATM    8  O5' PAP A 125      27.715  -1.663  42.239  1.00 30.13    -0.268 OA
BRANCH   8   9
HETATM    9  PA  PAP A 125      27.133  -0.149  42.096  1.00 31.22     0.419 P 
HETATM   10  O1A PAP A 125      28.030   0.568  41.142  1.00 32.37    -0.624 OA
HETATM   11  O2A PAP A 125      25.680  -0.220  41.786  1.00 32.57    -0.624 OA
BRANCH   9  12
HETATM   12  O3A PAP A 125      27.477   0.589  43.611  1.00 29.92    -0.173 OA
BRANCH  12  13
HETATM   13  PB  PAP A 125      27.126   1.996  44.389  1.00 26.94     0.431 P 
HETATM   14  O1B PAP A 125      28.209   2.174  45.378  1.00 24.20    -0.616 OA
HETATM   15  O2B PAP A 125      27.115   3.012  43.282  1.00 26.86    -0.616 OA
HETATM   16  O3B PAP A 125      25.793   1.775  44.997  1.00 28.16    -0.616 OA
ENDBRANCH  12  13
ENDBRANCH   9  12
ENDBRANCH   8   9
ENDBRANCH   7   8
ENDBRANCH   1   7
BRANCH   3  17
HETATM   17  O3' PAP A 125      29.744  -4.967  39.500  1.00 36.20    -0.261 OA
BRANCH  17  18
HETATM   18  P   PAP A 125      29.266  -6.187  38.406  1.00 39.68     0.423 P 
HETATM   19  O1  PAP A 125      28.603  -5.372  37.358  1.00 40.50    -0.617 OA
HETATM   20  O2  PAP A 125      30.562  -6.793  38.010  1.00 39.38    -0.617 OA
HETATM   21  O3  PAP A 125      28.398  -7.126  39.181  1.00 40.59    -0.617 OA
ENDBRANCH  17  18
ENDBRANCH   3  17
BRANCH   6  22
HETATM   22  N9  PAP A 125      31.314  -3.344  43.126  1.00 29.22    -0.270 N 
HETATM   23  C4  PAP A 125      32.682  -3.471  43.484  1.00 29.28     0.170 A 
HETATM   24  N3  PAP A 125      33.742  -3.992  42.769  1.00 29.66    -0.205 NA
HETATM   25  C5  PAP A 125      32.769  -2.956  44.772  1.00 29.93     0.155 A 
HETATM   26  C2  PAP A 125      34.881  -3.947  43.499  1.00 28.29     0.202 A 
HETATM   27  N1  PAP A 125      35.116  -3.491  44.739  1.00 27.66    -0.202 NA
HETATM   28  C6  PAP A 125      34.072  -2.962  45.431  1.00 28.82     0.206 A 
HETATM   29  N6  PAP A 125      34.274  -2.409  46.643  1.00 26.39    -0.125 N 
HETATM   30  N7  PAP A 125      31.476  -2.519  45.206  1.00 30.19    -0.219 NA
HETATM   31  C8  PAP A 125      30.686  -2.774  44.205  1.00 28.80     0.182 A 
ENDBRANCH   6  22
TORSDOF 8
ENDMDL
MODEL 6
REMARK VINA RESULT:    -5.467      0.842      2.048
REMARK INTER + INTRA:          -9.509
REMARK INTER:                  -8.117
REMARK INTRA:                  -1.391
REMARK UNBOUND:                -1.485
REMARK  8 active torsions:
REMARK  status: ('A' for Active; 'I' for Inactive)
REMARK    1  A    between atoms: P_1  and  O3'_9 
REMARK    2  A    between atoms: PA_2  and  O5'_5 
REMARK    3  A    between atoms: PA_2  and  O3A_23 
REMARK    4  A    between atoms: PB_3  and  O3A_23 
REMARK    5  A    between atoms: C5'_4  and  O5'_5 
REMARK    6  A    between atoms: C5'_4  and  C4'_6 
REMARK    7  A    between atoms: C3'_8  and  O3'_9 
REMARK    8  A    between atoms: C1'_12  and  N9_31 
ROOT
HETATM    1  C4' PAP A 125      41.999 -10.718  32.059  1.00 30.66     0.178 C 
HETATM    2  O4' PAP A 125      42.369  -9.431  31.556  1.00 30.64    -0.331 OA
HETATM    3  C3' PAP A 125      41.057 -11.357  31.002  1.00 32.01     0.192 C 
HETATM    4  C2' PAP A 125      41.428 -10.555  29.760  1.00 31.03     0.231 C 
HETATM    5  O2' PAP A 125      40.377 -10.618  28.772  1.00 29.14    -0.216 OA
HETATM    6  C1' PAP A 125      41.502  -9.183  30.461  1.00 29.59     0.241 C 
ENDROOT
BRANCH   1   7
HETATM    7  C5' PAP A 125      43.285 -11.472  32.238  1.00 29.07     0.187 C 
BRANCH   7   8
HETATM    8  O5' PAP A 125      44.242 -10.504  32.623  1.00 30.13    -0.268 OA
BRANCH   8   9
HETATM    9  PA  PAP A 125      45.652 -10.949  33.304  1.00 31.22     0.419 P 
HETATM   10  O1A PAP A 125      46.080  -9.820  34.183  1.00 32.37    -0.624 OA
HETATM   11  O2A PAP A 125      45.486 -12.297  33.912  1.00 32.57    -0.624 OA
BRANCH   9  12
HETATM   12  O3A PAP A 125      46.786 -10.912  32.012  1.00 29.92    -0.173 OA
BRANCH  12  13
HETATM   13  PB  PAP A 125      46.758 -10.880  30.367  1.00 26.94     0.431 P 
HETATM   14  O1B PAP A 125      46.046  -9.634  30.014  1.00 24.20    -0.616 OA
HETATM   15  O2B PAP A 125      48.213 -10.897  29.994  1.00 26.86    -0.616 OA
HETATM   16  O3B PAP A 125      46.036 -12.112  29.972  1.00 28.16    -0.616 OA
ENDBRANCH  12  13
ENDBRANCH   9  12
ENDBRANCH   8   9
ENDBRANCH   7   8
ENDBRANCH   1   7
BRANCH   3  17
HETATM   17  O3' PAP A 125      39.672 -11.129  31.387  1.00 36.20    -0.261 OA
BRANCH  17  18
HETATM   18  P   PAP A 125      38.699 -12.411  31.958  1.00 39.68     0.423 P 
HETATM   19  O1  PAP A 125      37.667 -12.468  30.893  1.00 40.50    -0.617 OA
HETATM   20  O2  PAP A 125      39.649 -13.552  31.979  1.00 39.38    -0.617 OA
HETATM   21  O3  PAP A 125      38.241 -12.012  33.323  1.00 40.59    -0.617 OA
ENDBRANCH  17  18
ENDBRANCH   3  17
BRANCH   6  22
HETATM   22  N9  PAP A 125      42.160  -8.088  29.713  1.00 29.22    -0.270 N 
HETATM   23  C4  PAP A 125      41.955  -6.683  29.744  1.00 29.28     0.170 A 
HETATM   24  N3  PAP A 125      41.056  -5.933  30.476  1.00 29.66    -0.205 NA
HETATM   25  C5  PAP A 125      42.871  -6.163  28.836  1.00 29.93     0.155 A 
HETATM   26  C2  PAP A 125      41.178  -4.617  30.181  1.00 28.29     0.202 A 
HETATM   27  N1  PAP A 125      41.998  -3.975  29.335  1.00 27.66    -0.202 NA
HETATM   28  C6  PAP A 125      42.893  -4.717  28.630  1.00 28.82     0.206 A 
HETATM   29  N6  PAP A 125      43.799  -4.112  27.838  1.00 26.39    -0.125 N 
HETATM   30  N7  PAP A 125      43.628  -7.228  28.251  1.00 30.19    -0.219 NA
HETATM   31  C8  PAP A 125      43.164  -8.309  28.804  1.00 28.80     0.182 A 
ENDBRANCH   6  22
TORSDOF 8
ENDMDL
MODEL 7
REMARK VINA RESULT:    -5.401     18.391     20.251
REMARK INTER + INTRA:          -9.412
REMARK INTER:                  -8.144
REMARK INTRA:                  -1.268
REMARK UNBOUND:                -1.485
REMARK  8 active torsions:
REMARK  status: ('A' for Active; 'I' for Inactive)
REMARK    1  A    between atoms: P_1  and  O3'_9 
REMARK    2  A    between atoms: PA_2  and  O5'_5 
REMARK    3  A    between atoms: PA_2  and  O3A_23 
REMARK    4  A    between atoms: PB_3  and  O3A_23 
REMARK    5  A    between atoms: C5'_4  and  O5'_5 
REMARK    6  A    between atoms: C5'_4  and  C4'_6 
REMARK    7  A    between atoms: C3'_8  and  O3'_9 
REMARK    8  A    between atoms: C1'_12  and  N9_31 
ROOT
HETATM    1  C4' PAP A 125      41.906   6.554  44.423  1.00 30.66     0.178 C 
HETATM    2  O4' PAP A 125      42.327   5.198  44.243  1.00 30.64    -0.331 OA
HETATM    3  C3' PAP A 125      40.368   6.519  44.637  1.00 32.01     0.192 C 
HETATM    4  C2' PAP A 125      40.169   5.075  45.080  1.00 31.03     0.231 C 
HETATM    5  O2' PAP A 125      38.801   4.657  44.879  1.00 29.14    -0.216 OA
HETATM    6  C1' PAP A 125      41.137   4.449  44.056  1.00 29.59     0.241 C 
ENDROOT
BRANCH   1   7
HETATM    7  C5' PAP A 125      42.659   7.059  45.619  1.00 29.07     0.187 C 
BRANCH   7   8
HETATM    8  O5' PAP A 125      43.898   6.378  45.603  1.00 30.13    -0.268 OA
BRANCH   8   9
HETATM    9  PA  PAP A 125      45.292   7.188  45.375  1.00 31.22     0.419 P 
HETATM   10  O1A PAP A 125      45.284   7.669  43.962  1.00 32.37    -0.624 OA
HETATM   11  O2A PAP A 125      45.448   8.191  46.464  1.00 32.57    -0.624 OA
BRANCH   9  12
HETATM   12  O3A PAP A 125      46.505   5.970  45.384  1.00 29.92    -0.173 OA
BRANCH  12  13
HETATM   13  PB  PAP A 125      47.822   5.553  44.488  1.00 26.94     0.431 P 
HETATM   14  O1B PAP A 125      48.672   6.761  44.462  1.00 24.20    -0.616 OA
HETATM   15  O2B PAP A 125      48.404   4.393  45.243  1.00 26.86    -0.616 OA
HETATM   16  O3B PAP A 125      47.278   5.178  43.162  1.00 28.16    -0.616 OA
ENDBRANCH  12  13
ENDBRANCH   9  12
ENDBRANCH   8   9
ENDBRANCH   7   8
ENDBRANCH   1   7
BRANCH   3  17
HETATM   17  O3' PAP A 125      39.698   6.783  43.371  1.00 36.20    -0.261 OA
BRANCH  17  18
HETATM   18  P   PAP A 125      39.167   8.357  42.974  1.00 39.68     0.423 P 
HETATM   19  O1  PAP A 125      39.489   8.398  41.526  1.00 40.50    -0.617 OA
HETATM   20  O2  PAP A 125      37.720   8.302  43.298  1.00 39.38    -0.617 OA
HETATM   21  O3  PAP A 125      39.926   9.290  43.862  1.00 40.59    -0.617 OA
ENDBRANCH  17  18
ENDBRANCH   3  17
BRANCH   6  22
HETATM   22  N9  PAP A 125      41.546   3.046  44.297  1.00 29.22    -0.270 N 
HETATM   23  C4  PAP A 125      40.871   1.821  44.046  1.00 29.28     0.170 A 
HETATM   24  N3  PAP A 125      39.617   1.591  43.518  1.00 29.66    -0.205 NA
HETATM   25  C5  PAP A 125      41.752   0.830  44.466  1.00 29.93     0.155 A 
HETATM   26  C2  PAP A 125      39.351   0.264  43.476  1.00 28.29     0.202 A 
HETATM   27  N1  PAP A 125      40.087  -0.795  43.846  1.00 27.66    -0.202 NA
HETATM   28  C6  PAP A 125      41.329  -0.563  44.348  1.00 28.82     0.206 A 
HETATM   29  N6  PAP A 125      42.142  -1.594  44.648  1.00 26.39    -0.125 N 
HETATM   30  N7  PAP A 125      42.949   1.431  44.971  1.00 30.19    -0.219 NA
HETATM   31  C8  PAP A 125      42.760   2.711  44.843  1.00 28.80     0.182 A 
ENDBRANCH   6  22
TORSDOF 8
ENDMDL
MODEL 8
REMARK VINA RESULT:    -5.328     10.472     12.687
REMARK INTER + INTRA:          -9.305
REMARK INTER:                  -8.165
REMARK INTRA:                  -1.140
REMARK UNBOUND:                -1.485
REMARK  8 active torsions:
REMARK  status: ('A' for Active; 'I' for Inactive)
REMARK    1  A    between atoms: P_1  and  O3'_9 
REMARK    2  A    between atoms: PA_2  and  O5'_5 
REMARK    3  A    between atoms: PA_2  and  O3A_23 
REMARK    4  A    between atoms: PB_3  and  O3A_23 
REMARK    5  A    between atoms: C5'_4  and  O5'_5 
REMARK    6  A    between atoms: C5'_4  and  C4'_6 
REMARK    7  A    between atoms: C3'_8  and  O3'_9 
REMARK    8  A    between atoms: C1'_12  and  N9_31 
ROOT
HETATM    1  C4' PAP A 125      43.224  -6.186  41.780  1.00 30.66     0.178 C 
HETATM    2  O4' PAP A 125      42.505  -4.950  41.836  1.00 30.64    -0.331 OA
HETATM    3  C3' PAP A 125      44.535  -5.976  42.586  1.00 32.01     0.192 C 
HETATM    4  C2' PAP A 125      44.153  -4.786  43.457  1.00 31.03     0.231 C 
HETATM    5  O2' PAP A 125      45.330  -4.101  43.940  1.00 29.14    -0.216 OA
HETATM    6  C1' PAP A 125      43.419  -3.997  42.354  1.00 29.59     0.241 C 
ENDROOT
BRANCH   1   7
HETATM    7  C5' PAP A 125      42.314  -7.214  42.386  1.00 29.07     0.187 C 
BRANCH   7   8
HETATM    8  O5' PAP A 125      42.038  -8.136  41.350  1.00 30.13    -0.268 OA
BRANCH   8   9
HETATM    9  PA  PAP A 125      40.694  -7.991  40.442  1.00 31.22     0.419 P 
HETATM   10  O1A PAP A 125      39.591  -7.594  41.366  1.00 32.37    -0.624 OA
HETATM   11  O2A PAP A 125      40.993  -7.113  39.278  1.00 32.57    -0.624 OA
BRANCH   9  12
HETATM   12  O3A PAP A 125      40.296  -9.604  40.000  1.00 29.92    -0.173 OA
BRANCH  12  13
HETATM   13  PB  PAP A 125      40.270 -11.090  40.708  1.00 26.94     0.431 P 
HETATM   14  O1B PAP A 125      39.462 -10.924  41.933  1.00 24.20    -0.616 OA
HETATM   15  O2B PAP A 125      39.645 -11.965  39.658  1.00 26.86    -0.616 OA
HETATM   16  O3B PAP A 125      41.692 -11.413  40.970  1.00 28.16    -0.616 OA
ENDBRANCH  12  13
ENDBRANCH   9  12
ENDBRANCH   8   9
ENDBRANCH   7   8
ENDBRANCH   1   7
BRANCH   3  17
HETATM   17  O3' PAP A 125      45.617  -5.640  41.671  1.00 36.20    -0.261 OA
BRANCH  17  18
HETATM   18  P   PAP A 125      46.248  -6.806  40.596  1.00 39.68     0.423 P 
HETATM   19  O1  PAP A 125      47.677  -6.404  40.563  1.00 40.50    -0.617 OA
HETATM   20  O2  PAP A 125      45.968  -8.082  41.302  1.00 39.38    -0.617 OA
HETATM   21  O3  PAP A 125      45.476  -6.663  39.324  1.00 40.59    -0.617 OA
ENDBRANCH  17  18
ENDBRANCH   3  17
BRANCH   6  22
HETATM   22  N9  PAP A 125      42.565  -2.871  42.795  1.00 29.22    -0.270 N 
HETATM   23  C4  PAP A 125      41.761  -1.964  42.055  1.00 29.28     0.170 A 
HETATM   24  N3  PAP A 125      41.564  -1.861  40.692  1.00 29.66    -0.205 NA
HETATM   25  C5  PAP A 125      41.181  -1.134  43.008  1.00 29.93     0.155 A 
HETATM   26  C2  PAP A 125      40.735  -0.829  40.405  1.00 28.29     0.202 A 
HETATM   27  N1  PAP A 125      40.112   0.050  41.204  1.00 27.66    -0.202 NA
HETATM   28  C6  PAP A 125      40.296  -0.068  42.546  1.00 28.82     0.206 A 
HETATM   29  N6  PAP A 125      39.621   0.732  43.394  1.00 26.39    -0.125 N 
HETATM   30  N7  PAP A 125      41.620  -1.519  44.315  1.00 30.19    -0.219 NA
HETATM   31  C8  PAP A 125      42.415  -2.527  44.115  1.00 28.80     0.182 A 
ENDBRANCH   6  22
TORSDOF 8
ENDMDL
MODEL 9
REMARK VINA RESULT:    -5.316     10.686     12.452
REMARK INTER + INTRA:          -9.287
REMARK INTER:                  -8.009
REMARK INTRA:                  -1.278
REMARK UNBOUND:                -1.485
REMARK  8 active torsions:
REMARK  status: ('A' for Active; 'I' for Inactive)
REMARK    1  A    between atoms: P_1  and  O3'_9 
REMARK    2  A    between atoms: PA_2  and  O5'_5 
REMARK    3  A    between atoms: PA_2  and  O3A_23 
REMARK    4  A    between atoms: PB_3  and  O3A_23 
REMARK    5  A    between atoms: C5'_4  and  O5'_5 
REMARK    6  A    between atoms: C5'_4  and  C4'_6 
REMARK    7  A    between atoms: C3'_8  and  O3'_9 
REMARK    8  A    between atoms: C1'_12  and  N9_31 
ROOT
HETATM    1  C4' PAP A 125      44.526  -6.119  42.630  1.00 30.66     0.178 C 
HETATM    2  O4' PAP A 125      44.121  -5.106  43.556  1.00 30.64    -0.331 OA
HETATM    3  C3' PAP A 125      44.022  -5.671  41.231  1.00 32.01     0.192 C 
HETATM    4  C2' PAP A 125      43.839  -4.175  41.453  1.00 31.03     0.231 C 
HETATM    5  O2' PAP A 125      42.936  -3.615  40.474  1.00 29.14    -0.216 OA
HETATM    6  C1' PAP A 125      43.201  -4.288  42.852  1.00 29.59     0.241 C 
ENDROOT
BRANCH   1   7
HETATM    7  C5' PAP A 125      46.023  -6.183  42.726  1.00 29.07     0.187 C 
BRANCH   7   8
HETATM    8  O5' PAP A 125      46.471  -6.542  41.433  1.00 30.13    -0.268 OA
BRANCH   8   9
HETATM    9  PA  PAP A 125      47.875  -7.341  41.229  1.00 31.22     0.419 P 
HETATM   10  O1A PAP A 125      48.946  -6.308  41.115  1.00 32.37    -0.624 OA
HETATM   11  O2A PAP A 125      47.997  -8.375  42.292  1.00 32.57    -0.624 OA
BRANCH   9  12
HETATM   12  O3A PAP A 125      47.770  -7.997  39.642  1.00 29.92    -0.173 OA
BRANCH  12  13
HETATM   13  PB  PAP A 125      47.730  -9.484  38.938  1.00 26.94     0.431 P 
HETATM   14  O1B PAP A 125      48.727 -10.289  39.672  1.00 24.20    -0.616 OA
HETATM   15  O2B PAP A 125      46.306  -9.921  39.130  1.00 26.86    -0.616 OA
HETATM   16  O3B PAP A 125      48.084  -9.244  37.519  1.00 28.16    -0.616 OA
ENDBRANCH  12  13
ENDBRANCH   9  12
ENDBRANCH   8   9
ENDBRANCH   7   8
ENDBRANCH   1   7
BRANCH   3  17
HETATM   17  O3' PAP A 125      42.752  -6.324  40.943  1.00 36.20    -0.261 OA
BRANCH  17  18
HETATM   18  P   PAP A 125      42.552  -7.264  39.532  1.00 39.68     0.423 P 
HETATM   19  O1  PAP A 125      43.968  -7.544  39.185  1.00 40.50    -0.617 OA
HETATM   20  O2  PAP A 125      41.781  -8.432  40.028  1.00 39.38    -0.617 OA
HETATM   21  O3  PAP A 125      41.775  -6.420  38.573  1.00 40.59    -0.617 OA
ENDBRANCH  17  18
ENDBRANCH   3  17
BRANCH   6  22
HETATM   22  N9  PAP A 125      43.127  -3.045  43.653  1.00 29.22    -0.270 N 
HETATM   23  C4  PAP A 125      42.343  -1.873  43.487  1.00 29.28     0.170 A 
HETATM   24  N3  PAP A 125      41.429  -1.548  42.505  1.00 29.66    -0.205 NA
HETATM   25  C5  PAP A 125      42.691  -1.050  44.553  1.00 29.93     0.155 A 
HETATM   26  C2  PAP A 125      40.924  -0.309  42.711  1.00 28.29     0.202 A 
HETATM   27  N1  PAP A 125      41.164   0.592  43.676  1.00 27.66    -0.202 NA
HETATM   28  C6  PAP A 125      42.052   0.259  44.650  1.00 28.82     0.206 A 
HETATM   29  N6  PAP A 125      42.259   1.091  45.690  1.00 26.39    -0.125 N 
HETATM   30  N7  PAP A 125      43.677  -1.700  45.363  1.00 30.19    -0.219 NA
HETATM   31  C8  PAP A 125      43.880  -2.846  44.784  1.00 28.80     0.182 A 
ENDBRANCH   6  22
TORSDOF 8
ENDMDL
