MODEL 1
REMARK VINA RESULT:    -6.718      0.000      0.000
REMARK INTER + INTRA:         -11.515
REMARK INTER:                  -9.860
REMARK INTRA:                  -1.655
REMARK UNBOUND:                -1.655
REMARK  8 active torsions:
REMARK  status: ('A' for Active; 'I' for Inactive)
REMARK    1  A    between atoms: P_1  and  O3'_9 
REMARK    2  A    between atoms: PA_2  and  O5'_5 
REMARK    3  A    between atoms: PA_2  and  O3A_23 
REMARK    4  A    between atoms: PB_3  and  O3A_23 
REMARK    5  A    between atoms: C5'_4  and  O5'_5 
REMARK    6  A    between atoms: C5'_4  and  C4'_6 
REMARK    7  A    between atoms: C3'_8  and  O3'_9 
REMARK    8  A    between atoms: C1'_12  and  N9_31 
ROOT
HETATM    1  C4' PAP A 125      36.712   4.897  24.339  1.00 30.66     0.178 C 
HETATM    2  O4' PAP A 125      37.094   3.560  24.678  1.00 30.64    -0.331 OA
HETATM    3  C3' PAP A 125      37.365   5.214  22.966  1.00 32.01     0.192 C 
HETATM    4  C2' PAP A 125      37.617   3.808  22.433  1.00 31.03     0.231 C 
HETATM    5  O2' PAP A 125      38.635   3.820  21.408  1.00 29.14    -0.216 OA
HETATM    6  C1' PAP A 125      38.120   3.211  23.762  1.00 29.59     0.241 C 
ENDROOT
BRANCH   1   7
HETATM    7  C5' PAP A 125      35.212   4.894  24.294  1.00 29.07     0.187 C 
BRANCH   7   8
HETATM    8  O5' PAP A 125      34.855   5.963  23.440  1.00 30.13    -0.268 OA
BRANCH   8   9
HETATM    9  PA  PAP A 125      34.048   7.256  24.014  1.00 31.22     0.419 P 
HETATM   10  O1A PAP A 125      33.902   8.210  22.876  1.00 32.37    -0.624 OA
HETATM   11  O2A PAP A 125      32.818   6.786  24.707  1.00 32.57    -0.624 OA
BRANCH   9  12
HETATM   12  O3A PAP A 125      35.171   8.035  25.058  1.00 29.92    -0.173 OA
BRANCH  12  13
HETATM   13  PB  PAP A 125      35.361   9.512  25.758  1.00 26.94     0.431 P 
HETATM   14  O1B PAP A 125      36.323  10.230  24.897  1.00 24.20    -0.616 OA
HETATM   15  O2B PAP A 125      33.971  10.081  25.755  1.00 26.86    -0.616 OA
HETATM   16  O3B PAP A 125      35.876   9.227  27.118  1.00 28.16    -0.616 OA
ENDBRANCH  12  13
ENDBRANCH   9  12
ENDBRANCH   8   9
ENDBRANCH   7   8
ENDBRANCH   1   7
BRANCH   3  17
HETATM   17  O3' PAP A 125      38.613   5.933  23.177  1.00 36.20    -0.261 OA
BRANCH  17  18
HETATM   18  P   PAP A 125      38.640   7.639  23.239  1.00 39.68     0.423 P 
HETATM   19  O1  PAP A 125      38.650   7.860  24.707  1.00 40.50    -0.617 OA
HETATM   20  O2  PAP A 125      39.909   7.968  22.543  1.00 39.38    -0.617 OA
HETATM   21  O3  PAP A 125      37.431   8.104  22.493  1.00 40.59    -0.617 OA
ENDBRANCH  17  18
ENDBRANCH   3  17
BRANCH   6  22
HETATM   22  N9  PAP A 125      38.197   1.735  23.843  1.00 29.22    -0.270 N 
HETATM   23  C4  PAP A 125      39.247   0.836  23.515  1.00 29.28     0.170 A 
HETATM   24  N3  PAP A 125      40.503   1.088  23.001  1.00 29.66    -0.205 NA
HETATM   25  C5  PAP A 125      38.747  -0.428  23.811  1.00 29.93     0.155 A 
HETATM   26  C2  PAP A 125      41.182  -0.068  22.810  1.00 28.29     0.202 A 
HETATM   27  N1  PAP A 125      40.835  -1.344  23.038  1.00 27.66    -0.202 NA
HETATM   28  C6  PAP A 125      39.603  -1.584  23.561  1.00 28.82     0.206 A 
HETATM   29  N6  PAP A 125      39.242  -2.838  23.894  1.00 26.39    -0.125 N 
HETATM   30  N7  PAP A 125      37.410  -0.313  24.311  1.00 30.19    -0.219 NA
HETATM   31  C8  PAP A 125      37.159   0.963  24.302  1.00 28.80     0.182 A 
ENDBRANCH   6  22
TORSDOF 8
ENDMDL
MODEL 2
REMARK VINA RESULT:    -6.709      2.754      4.071
REMARK INTER + INTRA:         -11.502
REMARK INTER:                 -10.557
REMARK INTRA:                  -0.945
REMARK UNBOUND:                -1.655
REMARK  8 active torsions:
REMARK  status: ('A' for Active; 'I' for Inactive)
REMARK    1  A    between atoms: P_1  and  O3'_9 
REMARK    2  A    between atoms: PA_2  and  O5'_5 
REMARK    3  A    between atoms: PA_2  and  O3A_23 
REMARK    4  A    between atoms: PB_3  and  O3A_23 
REMARK    5  A    between atoms: C5'_4  and  O5'_5 
REMARK    6  A    between atoms: C5'_4  and  C4'_6 
REMARK    7  A    between atoms: C3'_8  and  O3'_9 
REMARK    8  A    between atoms: C1'_12  and  N9_31 
ROOT
HETATM    1  C4' PAP A 125      38.176   2.318  24.001  1.00 30.66     0.178 C 
HETATM    2  O4' PAP A 125      37.588   1.013  23.986  1.00 30.64    -0.331 OA
HETATM    3  C3' PAP A 125      39.703   2.122  23.792  1.00 32.01     0.192 C 
HETATM    4  C2' PAP A 125      39.734   0.740  23.152  1.00 31.03     0.231 C 
HETATM    5  O2' PAP A 125      41.036   0.132  23.301  1.00 29.14    -0.216 OA
HETATM    6  C1' PAP A 125      38.673   0.103  24.073  1.00 29.59     0.241 C 
ENDROOT
BRANCH   1   7
HETATM    7  C5' PAP A 125      37.519   3.073  22.882  1.00 29.07     0.187 C 
BRANCH   7   8
HETATM    8  O5' PAP A 125      36.233   3.417  23.360  1.00 30.13    -0.268 OA
BRANCH   8   9
HETATM    9  PA  PAP A 125      36.056   4.308  24.712  1.00 31.22     0.419 P 
HETATM   10  O1A PAP A 125      35.505   3.397  25.758  1.00 32.37    -0.624 OA
HETATM   11  O2A PAP A 125      37.335   5.016  24.990  1.00 32.57    -0.624 OA
BRANCH   9  12
HETATM   12  O3A PAP A 125      34.747   5.367  24.362  1.00 29.92    -0.173 OA
BRANCH  12  13
HETATM   13  PB  PAP A 125      34.534   6.939  23.925  1.00 26.94     0.431 P 
HETATM   14  O1B PAP A 125      35.343   7.116  22.701  1.00 24.20    -0.616 OA
HETATM   15  O2B PAP A 125      33.050   7.045  23.715  1.00 26.86    -0.616 OA
HETATM   16  O3B PAP A 125      35.022   7.727  25.081  1.00 28.16    -0.616 OA
ENDBRANCH  12  13
ENDBRANCH   9  12
ENDBRANCH   8   9
ENDBRANCH   7   8
ENDBRANCH   1   7
BRANCH   3  17
HETATM   17  O3' PAP A 125      40.371   2.124  25.086  1.00 36.20    -0.261 OA
BRANCH  17  18
HETATM   18  P   PAP A 125      41.486   3.351  25.494  1.00 39.68     0.423 P 
HETATM   19  O1  PAP A 125      41.683   3.074  26.938  1.00 40.50    -0.617 OA
HETATM   20  O2  PAP A 125      42.648   3.034  24.626  1.00 39.38    -0.617 OA
HETATM   21  O3  PAP A 125      40.830   4.646  25.136  1.00 40.59    -0.617 OA
ENDBRANCH  17  18
ENDBRANCH   3  17
BRANCH   6  22
HETATM   22  N9  PAP A 125      38.102  -1.191  23.636  1.00 29.22    -0.270 N 
HETATM   23  C4  PAP A 125      38.594  -2.518  23.758  1.00 29.28     0.170 A 
HETATM   24  N3  PAP A 125      39.773  -2.979  24.310  1.00 29.66    -0.205 NA
HETATM   25  C5  PAP A 125      37.621  -3.321  23.174  1.00 29.93     0.155 A 
HETATM   26  C2  PAP A 125      39.861  -4.326  24.193  1.00 28.29     0.202 A 
HETATM   27  N1  PAP A 125      39.018  -5.221  23.657  1.00 27.66    -0.202 NA
HETATM   28  C6  PAP A 125      37.851  -4.763  23.132  1.00 28.82     0.206 A 
HETATM   29  N6  PAP A 125      36.932  -5.629  22.665  1.00 26.39    -0.125 N 
HETATM   30  N7  PAP A 125      36.546  -2.506  22.696  1.00 30.19    -0.219 NA
HETATM   31  C8  PAP A 125      36.891  -1.289  22.996  1.00 28.80     0.182 A 
ENDBRANCH   6  22
TORSDOF 8
ENDMDL
MODEL 3
REMARK VINA RESULT:    -6.648      5.748      9.090
REMARK INTER + INTRA:         -11.412
REMARK INTER:                  -9.904
REMARK INTRA:                  -1.508
REMARK UNBOUND:                -1.655
REMARK  8 active torsions:
REMARK  status: ('A' for Active; 'I' for Inactive)
REMARK    1  A    between atoms: P_1  and  O3'_9 
REMARK    2  A    between atoms: PA_2  and  O5'_5 
REMARK    3  A    between atoms: PA_2  and  O3A_23 
REMARK    4  A    between atoms: PB_3  and  O3A_23 
REMARK    5  A    between atoms: C5'_4  and  O5'_5 
REMARK    6  A    between atoms: C5'_4  and  C4'_6 
REMARK    7  A    between atoms: C3'_8  and  O3'_9 
REMARK    8  A    between atoms: C1'_12  and  N9_31 
ROOT
HETATM    1  C4' PAP A 125      37.170   7.045  24.449  1.00 30.66     0.178 C 
HETATM    2  O4' PAP A 125      36.779   8.232  25.147  1.00 30.64    -0.331 OA
HETATM    3  C3' PAP A 125      35.872   6.235  24.184  1.00 32.01     0.192 C 
HETATM    4  C2' PAP A 125      34.818   7.328  24.306  1.00 31.03     0.231 C 
HETATM    5  O2' PAP A 125      33.517   6.761  24.578  1.00 29.14    -0.216 OA
HETATM    6  C1' PAP A 125      35.433   8.020  25.539  1.00 29.59     0.241 C 
ENDROOT
BRANCH   1   7
HETATM    7  C5' PAP A 125      37.842   7.514  23.191  1.00 29.07     0.187 C 
BRANCH   7   8
HETATM    8  O5' PAP A 125      37.936   6.372  22.362  1.00 30.13    -0.268 OA
BRANCH   8   9
HETATM    9  PA  PAP A 125      39.379   5.687  22.046  1.00 31.22     0.419 P 
HETATM   10  O1A PAP A 125      39.513   5.633  20.561  1.00 32.37    -0.624 OA
HETATM   11  O2A PAP A 125      40.428   6.396  22.828  1.00 32.57    -0.624 OA
BRANCH   9  12
HETATM   12  O3A PAP A 125      39.182   4.040  22.498  1.00 29.92    -0.173 OA
BRANCH  12  13
HETATM   13  PB  PAP A 125      39.196   2.565  21.766  1.00 26.94     0.431 P 
HETATM   14  O1B PAP A 125      40.531   2.452  21.145  1.00 24.20    -0.616 OA
HETATM   15  O2B PAP A 125      38.950   1.611  22.901  1.00 26.86    -0.616 OA
HETATM   16  O3B PAP A 125      38.084   2.613  20.788  1.00 28.16    -0.616 OA
ENDBRANCH  12  13
ENDBRANCH   9  12
ENDBRANCH   8   9
ENDBRANCH   7   8
ENDBRANCH   1   7
BRANCH   3  17
HETATM   17  O3' PAP A 125      35.712   5.225  25.221  1.00 36.20    -0.261 OA
BRANCH  17  18
HETATM   18  P   PAP A 125      36.199   3.610  24.952  1.00 39.68     0.423 P 
HETATM   19  O1  PAP A 125      35.154   2.878  25.710  1.00 40.50    -0.617 OA
HETATM   20  O2  PAP A 125      36.111   3.487  23.475  1.00 39.38    -0.617 OA
HETATM   21  O3  PAP A 125      37.601   3.507  25.461  1.00 40.59    -0.617 OA
ENDBRANCH  17  18
ENDBRANCH   3  17
BRANCH   6  22
HETATM   22  N9  PAP A 125      34.928   9.373  25.865  1.00 29.22    -0.270 N 
HETATM   23  C4  PAP A 125      35.153  10.207  26.993  1.00 29.28     0.170 A 
HETATM   24  N3  PAP A 125      35.900   9.977  28.131  1.00 29.66    -0.205 NA
HETATM   25  C5  PAP A 125      34.428  11.366  26.737  1.00 29.93     0.155 A 
HETATM   26  C2  PAP A 125      35.821  11.032  28.976  1.00 28.29     0.202 A 
HETATM   27  N1  PAP A 125      35.168  12.199  28.871  1.00 27.66    -0.202 NA
HETATM   28  C6  PAP A 125      34.449  12.427  27.740  1.00 28.82     0.206 A 
HETATM   29  N6  PAP A 125      33.850  13.618  27.546  1.00 26.39    -0.125 N 
HETATM   30  N7  PAP A 125      33.765  11.251  25.473  1.00 30.19    -0.219 NA
HETATM   31  C8  PAP A 125      34.098  10.076  25.027  1.00 28.80     0.182 A 
ENDBRANCH   6  22
TORSDOF 8
ENDMDL
MODEL 4
REMARK VINA RESULT:    -6.413      2.055      3.583
REMARK INTER + INTRA:         -11.067
REMARK INTER:                  -9.764
REMARK INTRA:                  -1.303
REMARK UNBOUND:                -1.655
REMARK  8 active torsions:
REMARK  status: ('A' for Active; 'I' for Inactive)
REMARK    1  A    between atoms: P_1  and  O3'_9 
REMARK    2  A    between atoms: PA_2  and  O5'_5 
REMARK    3  A    between atoms: PA_2  and  O3A_23 
REMARK    4  A    between atoms: PB_3  and  O3A_23 
REMARK    5  A    between atoms: C5'_4  and  O5'_5 
REMARK    6  A    between atoms: C5'_4  and  C4'_6 
REMARK    7  A    between atoms: C3'_8  and  O3'_9 
REMARK    8  A    between atoms: C1'_12  and  N9_31 
ROOT
HETATM    1  C4' PAP A 125      38.121   2.237  24.133  1.00 30.66     0.178 C 
HETATM    2  O4' PAP A 125      38.595   0.914  24.405  1.00 30.64    -0.331 OA
HETATM    3  C3' PAP A 125      38.538   2.570  22.675  1.00 32.01     0.192 C 
HETATM    4  C2' PAP A 125      38.749   1.171  22.107  1.00 31.03     0.231 C 
HETATM    5  O2' PAP A 125      39.592   1.213  20.934  1.00 29.14    -0.216 OA
HETATM    6  C1' PAP A 125      39.475   0.596  23.339  1.00 29.59     0.241 C 
ENDROOT
BRANCH   1   7
HETATM    7  C5' PAP A 125      36.633   2.184  24.325  1.00 29.07     0.187 C 
BRANCH   7   8
HETATM    8  O5' PAP A 125      36.141   3.408  23.817  1.00 30.13    -0.268 OA
BRANCH   8   9
HETATM    9  PA  PAP A 125      36.097   4.742  24.750  1.00 31.22     0.419 P 
HETATM   10  O1A PAP A 125      35.764   4.288  26.132  1.00 32.37    -0.624 OA
HETATM   11  O2A PAP A 125      37.351   5.516  24.540  1.00 32.57    -0.624 OA
BRANCH   9  12
HETATM   12  O3A PAP A 125      34.681   5.576  24.243  1.00 29.92    -0.173 OA
BRANCH  12  13
HETATM   13  PB  PAP A 125      34.122   7.124  24.216  1.00 26.94     0.431 P 
HETATM   14  O1B PAP A 125      34.963   7.858  25.184  1.00 24.20    -0.616 OA
HETATM   15  O2B PAP A 125      34.309   7.538  22.784  1.00 26.86    -0.616 OA
HETATM   16  O3B PAP A 125      32.699   7.023  24.617  1.00 28.16    -0.616 OA
ENDBRANCH  12  13
ENDBRANCH   9  12
ENDBRANCH   8   9
ENDBRANCH   7   8
ENDBRANCH   1   7
BRANCH   3  17
HETATM   17  O3' PAP A 125      39.780   3.330  22.689  1.00 36.20    -0.261 OA
BRANCH  17  18
HETATM   18  P   PAP A 125      39.898   4.828  21.878  1.00 39.68     0.423 P 
HETATM   19  O1  PAP A 125      40.390   5.697  22.976  1.00 40.50    -0.617 OA
HETATM   20  O2  PAP A 125      40.886   4.541  20.809  1.00 39.38    -0.617 OA
HETATM   21  O3  PAP A 125      38.533   5.122  21.344  1.00 40.59    -0.617 OA
ENDBRANCH  17  18
ENDBRANCH   3  17
BRANCH   6  22
HETATM   22  N9  PAP A 125      39.612  -0.877  23.404  1.00 29.22    -0.270 N 
HETATM   23  C4  PAP A 125      38.652  -1.912  23.248  1.00 29.28     0.170 A 
HETATM   24  N3  PAP A 125      37.295  -1.833  23.009  1.00 29.66    -0.205 NA
HETATM   25  C5  PAP A 125      39.366  -3.095  23.403  1.00 29.93     0.155 A 
HETATM   26  C2  PAP A 125      36.745  -3.070  22.958  1.00 28.29     0.202 A 
HETATM   27  N1  PAP A 125      37.297  -4.286  23.092  1.00 27.66    -0.202 NA
HETATM   28  C6  PAP A 125      38.637  -4.357  23.310  1.00 28.82     0.206 A 
HETATM   29  N6  PAP A 125      39.252  -5.554  23.360  1.00 26.39    -0.125 N 
HETATM   30  N7  PAP A 125      40.744  -2.798  23.653  1.00 30.19    -0.219 NA
HETATM   31  C8  PAP A 125      40.813  -1.500  23.640  1.00 28.80     0.182 A 
ENDBRANCH   6  22
TORSDOF 8
ENDMDL
MODEL 5
REMARK VINA RESULT:    -6.382      2.015      5.431
REMARK INTER + INTRA:         -11.022
REMARK INTER:                  -9.566
REMARK INTRA:                  -1.456
REMARK UNBOUND:                -1.655
REMARK  8 active torsions:
REMARK  status: ('A' for Active; 'I' for Inactive)
REMARK    1  A    between atoms: P_1  and  O3'_9 
REMARK    2  A    between atoms: PA_2  and  O5'_5 
REMARK    3  A    between atoms: PA_2  and  O3A_23 
REMARK    4  A    between atoms: PB_3  and  O3A_23 
REMARK    5  A    between atoms: C5'_4  and  O5'_5 
REMARK    6  A    between atoms: C5'_4  and  C4'_6 
REMARK    7  A    between atoms: C3'_8  and  O3'_9 
REMARK    8  A    between atoms: C1'_12  and  N9_31 
ROOT
HETATM    1  C4' PAP A 125      37.074   5.633  23.085  1.00 30.66     0.178 C 
HETATM    2  O4' PAP A 125      37.369   4.246  22.890  1.00 30.64    -0.331 OA
HETATM    3  C3' PAP A 125      36.342   5.746  24.451  1.00 32.01     0.192 C 
HETATM    4  C2' PAP A 125      36.779   4.450  25.122  1.00 31.03     0.231 C 
HETATM    5  O2' PAP A 125      35.870   4.088  26.186  1.00 29.14    -0.216 OA
HETATM    6  C1' PAP A 125      36.624   3.553  23.878  1.00 29.59     0.241 C 
ENDROOT
BRANCH   1   7
HETATM    7  C5' PAP A 125      38.400   6.338  23.065  1.00 29.07     0.187 C 
BRANCH   7   8
HETATM    8  O5' PAP A 125      38.700   6.541  21.698  1.00 30.13    -0.268 OA
BRANCH   8   9
HETATM    9  PA  PAP A 125      40.072   5.952  21.049  1.00 31.22     0.419 P 
HETATM   10  O1A PAP A 125      40.357   6.768  19.831  1.00 32.37    -0.624 OA
HETATM   11  O2A PAP A 125      41.112   5.877  22.111  1.00 32.57    -0.624 OA
BRANCH   9  12
HETATM   12  O3A PAP A 125      39.625   4.417  20.416  1.00 29.92    -0.173 OA
BRANCH  12  13
HETATM   13  PB  PAP A 125      40.343   3.175  19.608  1.00 26.94     0.431 P 
HETATM   14  O1B PAP A 125      41.723   3.117  20.132  1.00 24.20    -0.616 OA
HETATM   15  O2B PAP A 125      39.489   1.991  19.960  1.00 26.86    -0.616 OA
HETATM   16  O3B PAP A 125      40.263   3.553  18.178  1.00 28.16    -0.616 OA
ENDBRANCH  12  13
ENDBRANCH   9  12
ENDBRANCH   8   9
ENDBRANCH   7   8
ENDBRANCH   1   7
BRANCH   3  17
HETATM   17  O3' PAP A 125      34.903   5.769  24.227  1.00 36.20    -0.261 OA
BRANCH  17  18
HETATM   18  P   PAP A 125      34.049   7.247  24.184  1.00 39.68     0.423 P 
HETATM   19  O1  PAP A 125      32.712   6.805  24.655  1.00 40.50    -0.617 OA
HETATM   20  O2  PAP A 125      34.809   8.088  25.142  1.00 39.38    -0.617 OA
HETATM   21  O3  PAP A 125      34.140   7.741  22.776  1.00 40.59    -0.617 OA
ENDBRANCH  17  18
ENDBRANCH   3  17
BRANCH   6  22
HETATM   22  N9  PAP A 125      37.252   2.213  23.939  1.00 29.22    -0.270 N 
HETATM   23  C4  PAP A 125      38.598   1.804  23.745  1.00 29.28     0.170 A 
HETATM   24  N3  PAP A 125      39.713   2.549  23.418  1.00 29.66    -0.205 NA
HETATM   25  C5  PAP A 125      38.590   0.428  23.941  1.00 29.93     0.155 A 
HETATM   26  C2  PAP A 125      40.803   1.754  23.301  1.00 28.29     0.202 A 
HETATM   27  N1  PAP A 125      40.947   0.428  23.453  1.00 27.66    -0.202 NA
HETATM   28  C6  PAP A 125      39.849  -0.297  23.792  1.00 28.82     0.206 A 
HETATM   29  N6  PAP A 125      39.960  -1.615  24.045  1.00 26.39    -0.125 N 
HETATM   30  N7  PAP A 125      37.262  -0.008  24.249  1.00 30.19    -0.219 NA
HETATM   31  C8  PAP A 125      36.543   1.075  24.231  1.00 28.80     0.182 A 
ENDBRANCH   6  22
TORSDOF 8
ENDMDL
MODEL 6
REMARK VINA RESULT:    -6.378      1.661      3.676
REMARK INTER + INTRA:         -11.015
REMARK INTER:                  -9.706
REMARK INTRA:                  -1.310
REMARK UNBOUND:                -1.655
REMARK  8 active torsions:
REMARK  status: ('A' for Active; 'I' for Inactive)
REMARK    1  A    between atoms: P_1  and  O3'_9 
REMARK    2  A    between atoms: PA_2  and  O5'_5 
REMARK    3  A    between atoms: PA_2  and  O3A_23 
REMARK    4  A    between atoms: PB_3  and  O3A_23 
REMARK    5  A    between atoms: C5'_4  and  O5'_5 
REMARK    6  A    between atoms: C5'_4  and  C4'_6 
REMARK    7  A    between atoms: C3'_8  and  O3'_9 
REMARK    8  A    between atoms: C1'_12  and  N9_31 
ROOT
HETATM    1  C4' PAP A 125      36.944   5.549  22.995  1.00 30.66     0.178 C 
HETATM    2  O4' PAP A 125      37.247   4.160  22.831  1.00 30.64    -0.331 OA
HETATM    3  C3' PAP A 125      36.303   5.703  24.402  1.00 32.01     0.192 C 
HETATM    4  C2' PAP A 125      36.804   4.438  25.089  1.00 31.03     0.231 C 
HETATM    5  O2' PAP A 125      35.975   4.104  26.223  1.00 29.14    -0.216 OA
HETATM    6  C1' PAP A 125      36.580   3.494  23.891  1.00 29.59     0.241 C 
ENDROOT
BRANCH   1   7
HETATM    7  C5' PAP A 125      38.253   6.270  22.860  1.00 29.07     0.187 C 
BRANCH   7   8
HETATM    8  O5' PAP A 125      38.107   7.465  23.603  1.00 30.13    -0.268 OA
BRANCH   8   9
HETATM    9  PA  PAP A 125      38.472   8.908  22.942  1.00 31.22     0.419 P 
HETATM   10  O1A PAP A 125      39.394   9.595  23.894  1.00 32.37    -0.624 OA
HETATM   11  O2A PAP A 125      38.928   8.694  21.542  1.00 32.57    -0.624 OA
BRANCH   9  12
HETATM   12  O3A PAP A 125      37.016   9.815  23.059  1.00 29.92    -0.173 OA
BRANCH  12  13
HETATM   13  PB  PAP A 125      35.964  10.569  22.042  1.00 26.94     0.431 P 
HETATM   14  O1B PAP A 125      34.736  10.778  22.837  1.00 24.20    -0.616 OA
HETATM   15  O2B PAP A 125      36.688  11.829  21.664  1.00 26.86    -0.616 OA
HETATM   16  O3B PAP A 125      35.788   9.629  20.910  1.00 28.16    -0.616 OA
ENDBRANCH  12  13
ENDBRANCH   9  12
ENDBRANCH   8   9
ENDBRANCH   7   8
ENDBRANCH   1   7
BRANCH   3  17
HETATM   17  O3' PAP A 125      34.852   5.699  24.275  1.00 36.20    -0.261 OA
BRANCH  17  18
HETATM   18  P   PAP A 125      33.973   7.162  24.244  1.00 39.68     0.423 P 
HETATM   19  O1  PAP A 125      34.813   8.006  25.129  1.00 40.50    -0.617 OA
HETATM   20  O2  PAP A 125      34.004   7.527  22.805  1.00 39.38    -0.617 OA
HETATM   21  O3  PAP A 125      32.598   6.833  24.730  1.00 40.59    -0.617 OA
ENDBRANCH  17  18
ENDBRANCH   3  17
BRANCH   6  22
HETATM   22  N9  PAP A 125      37.232   2.166  23.958  1.00 29.22    -0.270 N 
HETATM   23  C4  PAP A 125      38.580   1.776  23.740  1.00 29.28     0.170 A 
HETATM   24  N3  PAP A 125      39.675   2.535  23.378  1.00 29.66    -0.205 NA
HETATM   25  C5  PAP A 125      38.600   0.403  23.957  1.00 29.93     0.155 A 
HETATM   26  C2  PAP A 125      40.776   1.756  23.248  1.00 28.29     0.202 A 
HETATM   27  N1  PAP A 125      40.946   0.435  23.416  1.00 27.66    -0.202 NA
HETATM   28  C6  PAP A 125      39.867  -0.303  23.790  1.00 28.82     0.206 A 
HETATM   29  N6  PAP A 125      40.006  -1.615  24.060  1.00 26.39    -0.125 N 
HETATM   30  N7  PAP A 125      37.286  -0.050  24.300  1.00 30.19    -0.219 NA
HETATM   31  C8  PAP A 125      36.549   1.020  24.282  1.00 28.80     0.182 A 
ENDBRANCH   6  22
TORSDOF 8
ENDMDL
MODEL 7
REMARK VINA RESULT:    -6.352      5.671      8.531
REMARK INTER + INTRA:         -10.978
REMARK INTER:                  -9.740
REMARK INTRA:                  -1.238
REMARK UNBOUND:                -1.655
REMARK  8 active torsions:
REMARK  status: ('A' for Active; 'I' for Inactive)
REMARK    1  A    between atoms: P_1  and  O3'_9 
REMARK    2  A    between atoms: PA_2  and  O5'_5 
REMARK    3  A    between atoms: PA_2  and  O3A_23 
REMARK    4  A    between atoms: PB_3  and  O3A_23 
REMARK    5  A    between atoms: C5'_4  and  O5'_5 
REMARK    6  A    between atoms: C5'_4  and  C4'_6 
REMARK    7  A    between atoms: C3'_8  and  O3'_9 
REMARK    8  A    between atoms: C1'_12  and  N9_31 
ROOT
HETATM    1  C4' PAP A 125      38.134   0.550  23.981  1.00 30.66     0.178 C 
HETATM    2  O4' PAP A 125      39.510   0.318  24.297  1.00 30.64    -0.331 OA
HETATM    3  C3' PAP A 125      37.952   2.089  23.879  1.00 32.01     0.192 C 
HETATM    4  C2' PAP A 125      39.388   2.535  23.632  1.00 31.03     0.231 C 
HETATM    5  O2' PAP A 125      39.563   3.927  23.977  1.00 29.14    -0.216 OA
HETATM    6  C1' PAP A 125      40.040   1.584  24.656  1.00 29.59     0.241 C 
ENDROOT
BRANCH   1   7
HETATM    7  C5' PAP A 125      37.888  -0.162  22.683  1.00 29.07     0.187 C 
BRANCH   7   8
HETATM    8  O5' PAP A 125      38.437  -1.454  22.848  1.00 30.13    -0.268 OA
BRANCH   8   9
HETATM    9  PA  PAP A 125      37.491  -2.719  23.243  1.00 31.22     0.419 P 
HETATM   10  O1A PAP A 125      37.597  -2.890  24.722  1.00 32.37    -0.624 OA
HETATM   11  O2A PAP A 125      36.142  -2.513  22.648  1.00 32.57    -0.624 OA
BRANCH   9  12
HETATM   12  O3A PAP A 125      38.317  -4.089  22.613  1.00 29.92    -0.173 OA
BRANCH  12  13
HETATM   13  PB  PAP A 125      37.939  -5.588  22.049  1.00 26.94     0.431 P 
HETATM   14  O1B PAP A 125      36.869  -6.080  22.941  1.00 24.20    -0.616 OA
HETATM   15  O2B PAP A 125      37.505  -5.329  20.634  1.00 26.86    -0.616 OA
HETATM   16  O3B PAP A 125      39.199  -6.362  22.144  1.00 28.16    -0.616 OA
ENDBRANCH  12  13
ENDBRANCH   9  12
ENDBRANCH   8   9
ENDBRANCH   7   8
ENDBRANCH   1   7
BRANCH   3  17
HETATM   17  O3' PAP A 125      37.448   2.602  25.146  1.00 36.20    -0.261 OA
BRANCH  17  18
HETATM   18  P   PAP A 125      35.923   3.364  25.236  1.00 39.68     0.423 P 
HETATM   19  O1  PAP A 125      35.789   3.875  23.849  1.00 40.50    -0.617 OA
HETATM   20  O2  PAP A 125      35.019   2.239  25.585  1.00 39.38    -0.617 OA
HETATM   21  O3  PAP A 125      36.029   4.384  26.325  1.00 40.59    -0.617 OA
ENDBRANCH  17  18
ENDBRANCH   3  17
BRANCH   6  22
HETATM   22  N9  PAP A 125      41.507   1.408  24.562  1.00 29.22    -0.270 N 
HETATM   23  C4  PAP A 125      42.576   2.233  25.002  1.00 29.28     0.170 A 
HETATM   24  N3  PAP A 125      42.548   3.461  25.631  1.00 29.66    -0.205 NA
HETATM   25  C5  PAP A 125      43.732   1.545  24.650  1.00 29.93     0.155 A 
HETATM   26  C2  PAP A 125      43.805   3.915  25.850  1.00 28.29     0.202 A 
HETATM   27  N1  PAP A 125      45.000   3.375  25.566  1.00 27.66    -0.202 NA
HETATM   28  C6  PAP A 125      45.021   2.157  24.963  1.00 28.82     0.206 A 
HETATM   29  N6  PAP A 125      46.193   1.532  24.740  1.00 26.39    -0.125 N 
HETATM   30  N7  PAP A 125      43.385   0.316  24.002  1.00 30.19    -0.219 NA
HETATM   31  C8  PAP A 125      42.085   0.304  23.986  1.00 28.80     0.182 A 
ENDBRANCH   6  22
TORSDOF 8
ENDMDL
MODEL 8
REMARK VINA RESULT:    -6.337      5.709      8.613
REMARK INTER + INTRA:         -10.955
REMARK INTER:                  -9.180
REMARK INTRA:                  -1.775
REMARK UNBOUND:                -1.655
REMARK  8 active torsions:
REMARK  status: ('A' for Active; 'I' for Inactive)
REMARK    1  A    between atoms: P_1  and  O3'_9 
REMARK    2  A    between atoms: PA_2  and  O5'_5 
REMARK    3  A    between atoms: PA_2  and  O3A_23 
REMARK    4  A    between atoms: PB_3  and  O3A_23 
REMARK    5  A    between atoms: C5'_4  and  O5'_5 
REMARK    6  A    between atoms: C5'_4  and  C4'_6 
REMARK    7  A    between atoms: C3'_8  and  O3'_9 
REMARK    8  A    between atoms: C1'_12  and  N9_31 
ROOT
HETATM    1  C4' PAP A 125      37.350   7.116  24.779  1.00 30.66     0.178 C 
HETATM    2  O4' PAP A 125      36.833   8.275  25.441  1.00 30.64    -0.331 OA
HETATM    3  C3' PAP A 125      36.125   6.282  24.315  1.00 32.01     0.192 C 
HETATM    4  C2' PAP A 125      35.034   7.347  24.311  1.00 31.03     0.231 C 
HETATM    5  O2' PAP A 125      33.724   6.743  24.384  1.00 29.14    -0.216 OA
HETATM    6  C1' PAP A 125      35.451   8.021  25.634  1.00 29.59     0.241 C 
ENDROOT
BRANCH   1   7
HETATM    7  C5' PAP A 125      38.179   7.633  23.640  1.00 29.07     0.187 C 
BRANCH   7   8
HETATM    8  O5' PAP A 125      38.993   8.649  24.193  1.00 30.13    -0.268 OA
BRANCH   8   9
HETATM    9  PA  PAP A 125      39.849   9.648  23.233  1.00 31.22     0.419 P 
HETATM   10  O1A PAP A 125      40.721  10.463  24.130  1.00 32.37    -0.624 OA
HETATM   11  O2A PAP A 125      40.493   8.845  22.158  1.00 32.57    -0.624 OA
BRANCH   9  12
HETATM   12  O3A PAP A 125      38.694  10.780  22.649  1.00 29.92    -0.173 OA
BRANCH  12  13
HETATM   13  PB  PAP A 125      37.225  11.367  23.104  1.00 26.94     0.431 P 
HETATM   14  O1B PAP A 125      37.292  11.485  24.575  1.00 24.20    -0.616 OA
HETATM   15  O2B PAP A 125      37.133  12.676  22.373  1.00 26.86    -0.616 OA
HETATM   16  O3B PAP A 125      36.247  10.360  22.629  1.00 28.16    -0.616 OA
ENDBRANCH  12  13
ENDBRANCH   9  12
ENDBRANCH   8   9
ENDBRANCH   7   8
ENDBRANCH   1   7
BRANCH   3  17
HETATM   17  O3' PAP A 125      35.848   5.242  25.295  1.00 36.20    -0.261 OA
BRANCH  17  18
HETATM   18  P   PAP A 125      36.259   3.614  24.984  1.00 39.68     0.423 P 
HETATM   19  O1  PAP A 125      35.163   2.913  25.698  1.00 40.50    -0.617 OA
HETATM   20  O2  PAP A 125      36.195   3.542  23.502  1.00 39.38    -0.617 OA
HETATM   21  O3  PAP A 125      37.643   3.424  25.516  1.00 40.59    -0.617 OA
ENDBRANCH  17  18
ENDBRANCH   3  17
BRANCH   6  22
HETATM   22  N9  PAP A 125      34.869   9.353  25.916  1.00 29.22    -0.270 N 
HETATM   23  C4  PAP A 125      35.082  10.256  26.991  1.00 29.28     0.170 A 
HETATM   24  N3  PAP A 125      35.888  10.134  28.106  1.00 29.66    -0.205 NA
HETATM   25  C5  PAP A 125      34.271  11.350  26.711  1.00 29.93     0.155 A 
HETATM   26  C2  PAP A 125      35.772  11.224  28.901  1.00 28.29     0.202 A 
HETATM   27  N1  PAP A 125      35.037  12.338  28.769  1.00 27.66    -0.202 NA
HETATM   28  C6  PAP A 125      34.260  12.460  27.660  1.00 28.82     0.206 A 
HETATM   29  N6  PAP A 125      33.574  13.598  27.436  1.00 26.39    -0.125 N 
HETATM   30  N7  PAP A 125      33.566  11.128  25.485  1.00 30.19    -0.219 NA
HETATM   31  C8  PAP A 125      33.961   9.956  25.082  1.00 28.80     0.182 A 
ENDBRANCH   6  22
TORSDOF 8
ENDMDL
MODEL 9
REMARK VINA RESULT:    -6.173      2.459      5.315
REMARK INTER + INTRA:         -10.716
REMARK INTER:                  -9.273
REMARK INTRA:                  -1.443
REMARK UNBOUND:                -1.655
REMARK  8 active torsions:
REMARK  status: ('A' for Active; 'I' for Inactive)
REMARK    1  A    between atoms: P_1  and  O3'_9 
REMARK    2  A    between atoms: PA_2  and  O5'_5 
REMARK    3  A    between atoms: PA_2  and  O3A_23 
REMARK    4  A    between atoms: PB_3  and  O3A_23 
REMARK    5  A    between atoms: C5'_4  and  O5'_5 
REMARK    6  A    between atoms: C5'_4  and  C4'_6 
REMARK    7  A    between atoms: C3'_8  and  O3'_9 
REMARK    8  A    between atoms: C1'_12  and  N9_31 
ROOT
HETATM    1  C4' PAP A 125      37.204   5.728  22.884  1.00 30.66     0.178 C 
HETATM    2  O4' PAP A 125      37.469   4.331  22.725  1.00 30.64    -0.331 OA
HETATM    3  C3' PAP A 125      36.304   5.871  24.142  1.00 32.01     0.192 C 
HETATM    4  C2' PAP A 125      36.600   4.561  24.861  1.00 31.03     0.231 C 
HETATM    5  O2' PAP A 125      35.547   4.235  25.795  1.00 29.14    -0.216 OA
HETATM    6  C1' PAP A 125      36.575   3.668  23.605  1.00 29.59     0.241 C 
ENDROOT
BRANCH   1   7
HETATM    7  C5' PAP A 125      38.546   6.383  23.040  1.00 29.07     0.187 C 
BRANCH   7   8
HETATM    8  O5' PAP A 125      39.495   5.381  22.729  1.00 30.13    -0.268 OA
BRANCH   8   9
HETATM    9  PA  PAP A 125      40.848   5.209  23.618  1.00 31.22     0.419 P 
HETATM   10  O1A PAP A 125      41.976   5.037  22.656  1.00 32.37    -0.624 OA
HETATM   11  O2A PAP A 125      40.920   6.324  24.602  1.00 32.57    -0.624 OA
BRANCH   9  12
HETATM   12  O3A PAP A 125      40.692   3.659  24.346  1.00 29.92    -0.173 OA
BRANCH  12  13
HETATM   13  PB  PAP A 125      41.682   2.457  24.878  1.00 26.94     0.431 P 
HETATM   14  O1B PAP A 125      42.269   1.868  23.657  1.00 24.20    -0.616 OA
HETATM   15  O2B PAP A 125      42.661   3.177  25.761  1.00 26.86    -0.616 OA
HETATM   16  O3B PAP A 125      40.794   1.531  25.619  1.00 28.16    -0.616 OA
ENDBRANCH  12  13
ENDBRANCH   9  12
ENDBRANCH   8   9
ENDBRANCH   7   8
ENDBRANCH   1   7
BRANCH   3  17
HETATM   17  O3' PAP A 125      34.909   5.948  23.732  1.00 36.20    -0.261 OA
BRANCH  17  18
HETATM   18  P   PAP A 125      33.947   7.295  24.151  1.00 39.68     0.423 P 
HETATM   19  O1  PAP A 125      34.830   7.967  25.137  1.00 40.50    -0.617 OA
HETATM   20  O2  PAP A 125      33.796   8.001  22.854  1.00 39.38    -0.617 OA
HETATM   21  O3  PAP A 125      32.656   6.743  24.666  1.00 40.59    -0.617 OA
ENDBRANCH  17  18
ENDBRANCH   3  17
BRANCH   6  22
HETATM   22  N9  PAP A 125      37.139   2.306  23.743  1.00 29.22    -0.270 N 
HETATM   23  C4  PAP A 125      38.131   1.626  22.988  1.00 29.28     0.170 A 
HETATM   24  N3  PAP A 125      38.846   2.042  21.883  1.00 29.66    -0.205 NA
HETATM   25  C5  PAP A 125      38.254   0.379  23.592  1.00 29.93     0.155 A 
HETATM   26  C2  PAP A 125      39.678   1.063  21.454  1.00 28.29     0.202 A 
HETATM   27  N1  PAP A 125      39.898  -0.174  21.923  1.00 27.66    -0.202 NA
HETATM   28  C6  PAP A 125      39.205  -0.572  23.022  1.00 28.82     0.206 A 
HETATM   29  N6  PAP A 125      39.457  -1.769  23.586  1.00 26.39    -0.125 N 
HETATM   30  N7  PAP A 125      37.352   0.288  24.700  1.00 30.19    -0.219 NA
HETATM   31  C8  PAP A 125      36.742   1.436  24.727  1.00 28.80     0.182 A 
ENDBRANCH   6  22
TORSDOF 8
ENDMDL
