MODEL 1
REMARK VINA RESULT:    -6.821      0.000      0.000
REMARK INTER + INTRA:         -11.614
REMARK INTER:                 -10.011
REMARK INTRA:                  -1.602
REMARK UNBOUND:                -1.602
REMARK  8 active torsions:
REMARK  status: ('A' for Active; 'I' for Inactive)
REMARK    1  A    between atoms: P_1  and  O3'_9 
REMARK    2  A    between atoms: PA_2  and  O5'_5 
REMARK    3  A    between atoms: PA_2  and  O3A_23 
REMARK    4  A    between atoms: PB_3  and  O3A_23 
REMARK    5  A    between atoms: C5'_4  and  O5'_5 
REMARK    6  A    between atoms: C5'_4  and  C4'_6 
REMARK    7  A    between atoms: C3'_8  and  O3'_9 
REMARK    8  A    between atoms: C1'_12  and  N9_31 
ROOT
HETATM    1  C4' PAP A 125      36.729   4.791  24.310  1.00 30.66     0.178 C 
HETATM    2  O4' PAP A 125      37.056   3.419  24.550  1.00 30.64    -0.331 OA
HETATM    3  C3' PAP A 125      37.305   5.149  22.912  1.00 32.01     0.192 C 
HETATM    4  C2' PAP A 125      37.440   3.764  22.291  1.00 31.03     0.231 C 
HETATM    5  O2' PAP A 125      38.386   3.779  21.199  1.00 29.14    -0.216 OA
HETATM    6  C1' PAP A 125      37.997   3.068  23.549  1.00 29.59     0.241 C 
ENDROOT
BRANCH   1   7
HETATM    7  C5' PAP A 125      35.231   4.870  24.370  1.00 29.07     0.187 C 
BRANCH   7   8
HETATM    8  O5' PAP A 125      34.868   5.892  23.463  1.00 30.13    -0.268 OA
BRANCH   8   9
HETATM    9  PA  PAP A 125      34.087   7.225  23.977  1.00 31.22     0.419 P 
HETATM   10  O1A PAP A 125      33.984   8.143  22.804  1.00 32.37    -0.624 OA
HETATM   11  O2A PAP A 125      32.834   6.812  24.666  1.00 32.57    -0.624 OA
BRANCH   9  12
HETATM   12  O3A PAP A 125      35.213   8.012  25.012  1.00 29.92    -0.173 OA
BRANCH  12  13
HETATM   13  PB  PAP A 125      35.371   9.470  25.758  1.00 26.94     0.431 P 
HETATM   14  O1B PAP A 125      36.321  10.233  24.922  1.00 24.20    -0.616 OA
HETATM   15  O2B PAP A 125      33.970  10.011  25.766  1.00 26.86    -0.616 OA
HETATM   16  O3B PAP A 125      35.887   9.155  27.110  1.00 28.16    -0.616 OA
ENDBRANCH  12  13
ENDBRANCH   9  12
ENDBRANCH   8   9
ENDBRANCH   7   8
ENDBRANCH   1   7
BRANCH   3  17
HETATM   17  O3' PAP A 125      38.603   5.788  23.073  1.00 36.20    -0.261 OA
BRANCH  17  18
HETATM   18  P   PAP A 125      38.727   7.478  23.285  1.00 39.68     0.423 P 
HETATM   19  O1  PAP A 125      40.041   7.739  22.646  1.00 40.50    -0.617 OA
HETATM   20  O2  PAP A 125      37.549   7.984  22.537  1.00 39.38    -0.617 OA
HETATM   21  O3  PAP A 125      38.630   7.723  24.756  1.00 40.59    -0.617 OA
ENDBRANCH  17  18
ENDBRANCH   3  17
BRANCH   6  22
HETATM   22  N9  PAP A 125      37.995   1.587  23.547  1.00 29.22    -0.270 N 
HETATM   23  C4  PAP A 125      38.769   0.654  22.807  1.00 29.28     0.170 A 
HETATM   24  N3  PAP A 125      39.742   0.868  21.851  1.00 29.66    -0.205 NA
HETATM   25  C5  PAP A 125      38.336  -0.596  23.235  1.00 29.93     0.155 A 
HETATM   26  C2  PAP A 125      40.210  -0.310  21.373  1.00 28.29     0.202 A 
HETATM   27  N1  PAP A 125      39.890  -1.576  21.680  1.00 27.66    -0.202 NA
HETATM   28  C6  PAP A 125      38.945  -1.780  22.635  1.00 28.82     0.206 A 
HETATM   29  N6  PAP A 125      38.653  -3.030  23.043  1.00 26.39    -0.125 N 
HETATM   30  N7  PAP A 125      37.309  -0.440  24.221  1.00 30.19    -0.219 NA
HETATM   31  C8  PAP A 125      37.165   0.846  24.350  1.00 28.80     0.182 A 
ENDBRANCH   6  22
TORSDOF 8
ENDMDL
MODEL 2
REMARK VINA RESULT:    -6.646      2.817      3.902
REMARK INTER + INTRA:         -11.356
REMARK INTER:                 -10.361
REMARK INTRA:                  -0.995
REMARK UNBOUND:                -1.602
REMARK  8 active torsions:
REMARK  status: ('A' for Active; 'I' for Inactive)
REMARK    1  A    between atoms: P_1  and  O3'_9 
REMARK    2  A    between atoms: PA_2  and  O5'_5 
REMARK    3  A    between atoms: PA_2  and  O3A_23 
REMARK    4  A    between atoms: PB_3  and  O3A_23 
REMARK    5  A    between atoms: C5'_4  and  O5'_5 
REMARK    6  A    between atoms: C5'_4  and  C4'_6 
REMARK    7  A    between atoms: C3'_8  and  O3'_9 
REMARK    8  A    between atoms: C1'_12  and  N9_31 
ROOT
HETATM    1  C4' PAP A 125      39.272   3.018  24.616  1.00 30.66     0.178 C 
HETATM    2  O4' PAP A 125      38.484   1.822  24.613  1.00 30.64    -0.331 OA
HETATM    3  C3' PAP A 125      40.569   2.700  23.824  1.00 32.01     0.192 C 
HETATM    4  C2' PAP A 125      40.122   1.495  23.005  1.00 31.03     0.231 C 
HETATM    5  O2' PAP A 125      41.259   0.725  22.556  1.00 29.14    -0.216 OA
HETATM    6  C1' PAP A 125      39.345   0.798  24.140  1.00 29.59     0.241 C 
ENDROOT
BRANCH   1   7
HETATM    7  C5' PAP A 125      38.421   4.067  23.962  1.00 29.07     0.187 C 
BRANCH   7   8
HETATM    8  O5' PAP A 125      37.470   4.448  24.937  1.00 30.13    -0.268 OA
BRANCH   8   9
HETATM    9  PA  PAP A 125      35.874   4.305  24.647  1.00 31.22     0.419 P 
HETATM   10  O1A PAP A 125      35.718   4.155  23.170  1.00 32.37    -0.624 OA
HETATM   11  O2A PAP A 125      35.319   3.243  25.530  1.00 32.57    -0.624 OA
BRANCH   9  12
HETATM   12  O3A PAP A 125      35.236   5.869  24.969  1.00 29.92    -0.173 OA
BRANCH  12  13
HETATM   13  PB  PAP A 125      34.725   7.177  24.110  1.00 26.94     0.431 P 
HETATM   14  O1B PAP A 125      34.790   8.311  25.055  1.00 24.20    -0.616 OA
HETATM   15  O2B PAP A 125      35.704   7.251  22.973  1.00 26.86    -0.616 OA
HETATM   16  O3B PAP A 125      33.349   6.837  23.679  1.00 28.16    -0.616 OA
ENDBRANCH  12  13
ENDBRANCH   9  12
ENDBRANCH   8   9
ENDBRANCH   7   8
ENDBRANCH   1   7
BRANCH   3  17
HETATM   17  O3' PAP A 125      41.630   2.344  24.755  1.00 36.20    -0.261 OA
BRANCH  17  18
HETATM   18  P   PAP A 125      42.381   3.535  25.722  1.00 39.68     0.423 P 
HETATM   19  O1  PAP A 125      41.956   4.769  25.016  1.00 40.50    -0.617 OA
HETATM   20  O2  PAP A 125      41.753   3.318  27.049  1.00 39.38    -0.617 OA
HETATM   21  O3  PAP A 125      43.843   3.220  25.712  1.00 40.59    -0.617 OA
ENDBRANCH  17  18
ENDBRANCH   3  17
BRANCH   6  22
HETATM   22  N9  PAP A 125      38.429  -0.297  23.746  1.00 29.22    -0.270 N 
HETATM   23  C4  PAP A 125      38.607  -1.706  23.742  1.00 29.28     0.170 A 
HETATM   24  N3  PAP A 125      39.708  -2.462  24.089  1.00 29.66    -0.205 NA
HETATM   25  C5  PAP A 125      37.400  -2.222  23.283  1.00 29.93     0.155 A 
HETATM   26  C2  PAP A 125      39.459  -3.781  23.910  1.00 28.29     0.202 A 
HETATM   27  N1  PAP A 125      38.363  -4.420  23.475  1.00 27.66    -0.202 NA
HETATM   28  C6  PAP A 125      37.275  -3.671  23.152  1.00 28.82     0.206 A 
HETATM   29  N6  PAP A 125      36.122  -4.270  22.798  1.00 26.39    -0.125 N 
HETATM   30  N7  PAP A 125      36.491  -1.151  23.006  1.00 30.19    -0.219 NA
HETATM   31  C8  PAP A 125      37.153  -0.070  23.296  1.00 28.80     0.182 A 
ENDBRANCH   6  22
TORSDOF 8
ENDMDL
MODEL 3
REMARK VINA RESULT:    -6.636      2.371      3.775
REMARK INTER + INTRA:         -11.342
REMARK INTER:                 -10.057
REMARK INTRA:                  -1.285
REMARK UNBOUND:                -1.602
REMARK  8 active torsions:
REMARK  status: ('A' for Active; 'I' for Inactive)
REMARK    1  A    between atoms: P_1  and  O3'_9 
REMARK    2  A    between atoms: PA_2  and  O5'_5 
REMARK    3  A    between atoms: PA_2  and  O3A_23 
REMARK    4  A    between atoms: PB_3  and  O3A_23 
REMARK    5  A    between atoms: C5'_4  and  O5'_5 
REMARK    6  A    between atoms: C5'_4  and  C4'_6 
REMARK    7  A    between atoms: C3'_8  and  O3'_9 
REMARK    8  A    between atoms: C1'_12  and  N9_31 
ROOT
HETATM    1  C4' PAP A 125      37.503   1.602  24.734  1.00 30.66     0.178 C 
HETATM    2  O4' PAP A 125      37.343   0.184  24.620  1.00 30.64    -0.331 OA
HETATM    3  C3' PAP A 125      38.475   2.033  23.602  1.00 32.01     0.192 C 
HETATM    4  C2' PAP A 125      38.340   0.860  22.640  1.00 31.03     0.231 C 
HETATM    5  O2' PAP A 125      39.481   0.783  21.756  1.00 29.14    -0.216 OA
HETATM    6  C1' PAP A 125      38.349  -0.244  23.716  1.00 29.59     0.241 C 
ENDROOT
BRANCH   1   7
HETATM    7  C5' PAP A 125      36.126   2.181  24.583  1.00 29.07     0.187 C 
BRANCH   7   8
HETATM    8  O5' PAP A 125      36.310   3.442  23.969  1.00 30.13    -0.268 OA
BRANCH   8   9
HETATM    9  PA  PAP A 125      36.173   4.817  24.831  1.00 31.22     0.419 P 
HETATM   10  O1A PAP A 125      35.736   4.423  26.203  1.00 32.37    -0.624 OA
HETATM   11  O2A PAP A 125      37.429   5.601  24.685  1.00 32.57    -0.624 OA
BRANCH   9  12
HETATM   12  O3A PAP A 125      34.792   5.602  24.173  1.00 29.92    -0.173 OA
BRANCH  12  13
HETATM   13  PB  PAP A 125      34.122   7.105  24.188  1.00 26.94     0.431 P 
HETATM   14  O1B PAP A 125      32.721   6.902  24.608  1.00 24.20    -0.616 OA
HETATM   15  O2B PAP A 125      34.970   7.855  25.175  1.00 26.86    -0.616 OA
HETATM   16  O3B PAP A 125      34.263   7.600  22.798  1.00 28.16    -0.616 OA
ENDBRANCH  12  13
ENDBRANCH   9  12
ENDBRANCH   8   9
ENDBRANCH   7   8
ENDBRANCH   1   7
BRANCH   3  17
HETATM   17  O3' PAP A 125      39.827   2.129  24.136  1.00 36.20    -0.261 OA
BRANCH  17  18
HETATM   18  P   PAP A 125      40.755   3.545  23.918  1.00 39.68     0.423 P 
HETATM   19  O1  PAP A 125      42.107   2.961  23.732  1.00 40.50    -0.617 OA
HETATM   20  O2  PAP A 125      40.153   4.143  22.700  1.00 39.38    -0.617 OA
HETATM   21  O3  PAP A 125      40.541   4.378  25.141  1.00 40.59    -0.617 OA
ENDBRANCH  17  18
ENDBRANCH   3  17
BRANCH   6  22
HETATM   22  N9  PAP A 125      37.910  -1.593  23.291  1.00 29.22    -0.270 N 
HETATM   23  C4  PAP A 125      38.638  -2.801  23.124  1.00 29.28     0.170 A 
HETATM   24  N3  PAP A 125      39.984  -3.057  23.293  1.00 29.66    -0.205 NA
HETATM   25  C5  PAP A 125      37.694  -3.739  22.720  1.00 29.93     0.155 A 
HETATM   26  C2  PAP A 125      40.266  -4.349  22.998  1.00 28.29     0.202 A 
HETATM   27  N1  PAP A 125      39.475  -5.355  22.596  1.00 27.66    -0.202 NA
HETATM   28  C6  PAP A 125      38.148  -5.101  22.449  1.00 28.82     0.206 A 
HETATM   29  N6  PAP A 125      37.298  -6.098  22.136  1.00 26.39    -0.125 N 
HETATM   30  N7  PAP A 125      36.405  -3.122  22.636  1.00 30.19    -0.219 NA
HETATM   31  C8  PAP A 125      36.606  -1.884  22.980  1.00 28.80     0.182 A 
ENDBRANCH   6  22
TORSDOF 8
ENDMDL
MODEL 4
REMARK VINA RESULT:    -6.521      1.826      3.819
REMARK INTER + INTRA:         -11.172
REMARK INTER:                  -9.861
REMARK INTRA:                  -1.312
REMARK UNBOUND:                -1.602
REMARK  8 active torsions:
REMARK  status: ('A' for Active; 'I' for Inactive)
REMARK    1  A    between atoms: P_1  and  O3'_9 
REMARK    2  A    between atoms: PA_2  and  O5'_5 
REMARK    3  A    between atoms: PA_2  and  O3A_23 
REMARK    4  A    between atoms: PB_3  and  O3A_23 
REMARK    5  A    between atoms: C5'_4  and  O5'_5 
REMARK    6  A    between atoms: C5'_4  and  C4'_6 
REMARK    7  A    between atoms: C3'_8  and  O3'_9 
REMARK    8  A    between atoms: C1'_12  and  N9_31 
ROOT
HETATM    1  C4' PAP A 125      36.836   5.604  23.004  1.00 30.66     0.178 C 
HETATM    2  O4' PAP A 125      37.137   4.215  22.836  1.00 30.64    -0.331 OA
HETATM    3  C3' PAP A 125      36.226   5.760  24.423  1.00 32.01     0.192 C 
HETATM    4  C2' PAP A 125      36.742   4.497  25.102  1.00 31.03     0.231 C 
HETATM    5  O2' PAP A 125      35.937   4.164  26.255  1.00 29.14    -0.216 OA
HETATM    6  C1' PAP A 125      36.493   3.550  23.911  1.00 29.59     0.241 C 
ENDROOT
BRANCH   1   7
HETATM    7  C5' PAP A 125      38.142   6.326  22.839  1.00 29.07     0.187 C 
BRANCH   7   8
HETATM    8  O5' PAP A 125      37.816   7.571  22.253  1.00 30.13    -0.268 OA
BRANCH   8   9
HETATM    9  PA  PAP A 125      38.118   8.967  23.035  1.00 31.22     0.419 P 
HETATM   10  O1A PAP A 125      38.215   8.634  24.486  1.00 32.37    -0.624 OA
HETATM   11  O2A PAP A 125      39.273   9.642  22.383  1.00 32.57    -0.624 OA
BRANCH   9  12
HETATM   12  O3A PAP A 125      36.649   9.853  22.917  1.00 29.92    -0.173 OA
BRANCH  12  13
HETATM   13  PB  PAP A 125      35.789  10.639  21.755  1.00 26.94     0.431 P 
HETATM   14  O1B PAP A 125      36.563  11.862  21.459  1.00 24.20    -0.616 OA
HETATM   15  O2B PAP A 125      35.734   9.645  20.630  1.00 26.86    -0.616 OA
HETATM   16  O3B PAP A 125      34.467  10.904  22.370  1.00 28.16    -0.616 OA
ENDBRANCH  12  13
ENDBRANCH   9  12
ENDBRANCH   8   9
ENDBRANCH   7   8
ENDBRANCH   1   7
BRANCH   3  17
HETATM   17  O3' PAP A 125      34.772   5.754  24.328  1.00 36.20    -0.261 OA
BRANCH  17  18
HETATM   18  P   PAP A 125      33.899   7.215  24.194  1.00 39.68     0.423 P 
HETATM   19  O1  PAP A 125      32.569   6.787  24.694  1.00 40.50    -0.617 OA
HETATM   20  O2  PAP A 125      34.650   8.125  25.096  1.00 39.38    -0.617 OA
HETATM   21  O3  PAP A 125      33.982   7.622  22.758  1.00 40.59    -0.617 OA
ENDBRANCH  17  18
ENDBRANCH   3  17
BRANCH   6  22
HETATM   22  N9  PAP A 125      37.148   2.223  23.966  1.00 29.22    -0.270 N 
HETATM   23  C4  PAP A 125      38.491   1.834  23.717  1.00 29.28     0.170 A 
HETATM   24  N3  PAP A 125      39.576   2.592  23.327  1.00 29.66    -0.205 NA
HETATM   25  C5  PAP A 125      38.516   0.461  23.938  1.00 29.93     0.155 A 
HETATM   26  C2  PAP A 125      40.674   1.813  23.174  1.00 28.29     0.202 A 
HETATM   27  N1  PAP A 125      40.848   0.493  23.341  1.00 27.66    -0.202 NA
HETATM   28  C6  PAP A 125      39.780  -0.245  23.743  1.00 28.82     0.206 A 
HETATM   29  N6  PAP A 125      39.926  -1.556  24.014  1.00 26.39    -0.125 N 
HETATM   30  N7  PAP A 125      37.212   0.008  24.315  1.00 30.19    -0.219 NA
HETATM   31  C8  PAP A 125      36.474   1.078  24.310  1.00 28.80     0.182 A 
ENDBRANCH   6  22
TORSDOF 8
ENDMDL
MODEL 5
REMARK VINA RESULT:    -6.520      1.768      4.143
REMARK INTER + INTRA:         -11.171
REMARK INTER:                 -10.082
REMARK INTRA:                  -1.090
REMARK UNBOUND:                -1.602
REMARK  8 active torsions:
REMARK  status: ('A' for Active; 'I' for Inactive)
REMARK    1  A    between atoms: P_1  and  O3'_9 
REMARK    2  A    between atoms: PA_2  and  O5'_5 
REMARK    3  A    between atoms: PA_2  and  O3A_23 
REMARK    4  A    between atoms: PB_3  and  O3A_23 
REMARK    5  A    between atoms: C5'_4  and  O5'_5 
REMARK    6  A    between atoms: C5'_4  and  C4'_6 
REMARK    7  A    between atoms: C3'_8  and  O3'_9 
REMARK    8  A    between atoms: C1'_12  and  N9_31 
ROOT
HETATM    1  C4' PAP A 125      36.976   5.569  23.060  1.00 30.66     0.178 C 
HETATM    2  O4' PAP A 125      37.246   4.175  22.875  1.00 30.64    -0.331 OA
HETATM    3  C3' PAP A 125      36.350   5.718  24.474  1.00 32.01     0.192 C 
HETATM    4  C2' PAP A 125      36.828   4.433  25.140  1.00 31.03     0.231 C 
HETATM    5  O2' PAP A 125      36.000   4.102  26.277  1.00 29.14    -0.216 OA
HETATM    6  C1' PAP A 125      36.573   3.510  23.931  1.00 29.59     0.241 C 
ENDROOT
BRANCH   1   7
HETATM    7  C5' PAP A 125      38.300   6.262  22.924  1.00 29.07     0.187 C 
BRANCH   7   8
HETATM    8  O5' PAP A 125      38.017   7.503  22.307  1.00 30.13    -0.268 OA
BRANCH   8   9
HETATM    9  PA  PAP A 125      38.468   8.904  23.004  1.00 31.22     0.419 P 
HETATM   10  O1A PAP A 125      38.433   9.946  21.937  1.00 32.37    -0.624 OA
HETATM   11  O2A PAP A 125      37.650   9.115  24.229  1.00 32.57    -0.624 OA
BRANCH   9  12
HETATM   12  O3A PAP A 125      40.146   8.705  23.325  1.00 29.92    -0.173 OA
BRANCH  12  13
HETATM   13  PB  PAP A 125      41.320   9.465  24.194  1.00 26.94     0.431 P 
HETATM   14  O1B PAP A 125      41.533   8.616  25.384  1.00 24.20    -0.616 OA
HETATM   15  O2B PAP A 125      42.481   9.513  23.242  1.00 26.86    -0.616 OA
HETATM   16  O3B PAP A 125      40.760  10.801  24.506  1.00 28.16    -0.616 OA
ENDBRANCH  12  13
ENDBRANCH   9  12
ENDBRANCH   8   9
ENDBRANCH   7   8
ENDBRANCH   1   7
BRANCH   3  17
HETATM   17  O3' PAP A 125      34.899   5.748  24.360  1.00 36.20    -0.261 OA
BRANCH  17  18
HETATM   18  P   PAP A 125      34.066   7.228  24.187  1.00 39.68     0.423 P 
HETATM   19  O1  PAP A 125      32.690   6.814  24.559  1.00 40.50    -0.617 OA
HETATM   20  O2  PAP A 125      34.750   8.102  25.173  1.00 39.38    -0.617 OA
HETATM   21  O3  PAP A 125      34.281   7.667  22.774  1.00 40.59    -0.617 OA
ENDBRANCH  17  18
ENDBRANCH   3  17
BRANCH   6  22
HETATM   22  N9  PAP A 125      37.195   2.167  23.975  1.00 29.22    -0.270 N 
HETATM   23  C4  PAP A 125      38.539   1.755  23.772  1.00 29.28     0.170 A 
HETATM   24  N3  PAP A 125      39.657   2.499  23.452  1.00 29.66    -0.205 NA
HETATM   25  C5  PAP A 125      38.525   0.376  23.952  1.00 29.93     0.155 A 
HETATM   26  C2  PAP A 125      40.743   1.700  23.323  1.00 28.29     0.202 A 
HETATM   27  N1  PAP A 125      40.882   0.372  23.458  1.00 27.66    -0.202 NA
HETATM   28  C6  PAP A 125      39.781  -0.353  23.791  1.00 28.82     0.206 A 
HETATM   29  N6  PAP A 125      39.886  -1.674  24.027  1.00 26.39    -0.125 N 
HETATM   30  N7  PAP A 125      37.196  -0.058  24.258  1.00 30.19    -0.219 NA
HETATM   31  C8  PAP A 125      36.482   1.029  24.254  1.00 28.80     0.182 A 
ENDBRANCH   6  22
TORSDOF 8
ENDMDL
MODEL 6
REMARK VINA RESULT:    -6.443      4.431      7.402
REMARK INTER + INTRA:         -11.058
REMARK INTER:                  -9.898
REMARK INTRA:                  -1.161
REMARK UNBOUND:                -1.602
REMARK  8 active torsions:
REMARK  status: ('A' for Active; 'I' for Inactive)
REMARK    1  A    between atoms: P_1  and  O3'_9 
REMARK    2  A    between atoms: PA_2  and  O5'_5 
REMARK    3  A    between atoms: PA_2  and  O3A_23 
REMARK    4  A    between atoms: PB_3  and  O3A_23 
REMARK    5  A    between atoms: C5'_4  and  O5'_5 
REMARK    6  A    between atoms: C5'_4  and  C4'_6 
REMARK    7  A    between atoms: C3'_8  and  O3'_9 
REMARK    8  A    between atoms: C1'_12  and  N9_31 
ROOT
HETATM    1  C4' PAP A 125      36.339   4.578  24.728  1.00 30.66     0.178 C 
HETATM    2  O4' PAP A 125      37.748   4.663  24.963  1.00 30.64    -0.331 OA
HETATM    3  C3' PAP A 125      35.978   5.738  23.760  1.00 32.01     0.192 C 
HETATM    4  C2' PAP A 125      37.338   6.031  23.138  1.00 31.03     0.231 C 
HETATM    5  O2' PAP A 125      37.371   7.361  22.574  1.00 29.14    -0.216 OA
HETATM    6  C1' PAP A 125      38.149   5.921  24.445  1.00 29.59     0.241 C 
ENDROOT
BRANCH   1   7
HETATM    7  C5' PAP A 125      36.105   3.219  24.136  1.00 29.07     0.187 C 
BRANCH   7   8
HETATM    8  O5' PAP A 125      36.925   2.336  24.877  1.00 30.13    -0.268 OA
BRANCH   8   9
HETATM    9  PA  PAP A 125      37.984   1.353  24.127  1.00 31.22     0.419 P 
HETATM   10  O1A PAP A 125      37.962   1.721  22.680  1.00 32.37    -0.624 OA
HETATM   11  O2A PAP A 125      39.282   1.403  24.852  1.00 32.57    -0.624 OA
BRANCH   9  12
HETATM   12  O3A PAP A 125      37.236  -0.195  24.164  1.00 29.92    -0.173 OA
BRANCH  12  13
HETATM   13  PB  PAP A 125      37.416  -1.654  23.424  1.00 26.94     0.431 P 
HETATM   14  O1B PAP A 125      36.162  -1.866  22.672  1.00 24.20    -0.616 OA
HETATM   15  O2B PAP A 125      38.635  -1.463  22.568  1.00 26.86    -0.616 OA
HETATM   16  O3B PAP A 125      37.620  -2.621  24.529  1.00 28.16    -0.616 OA
ENDBRANCH  12  13
ENDBRANCH   9  12
ENDBRANCH   8   9
ENDBRANCH   7   8
ENDBRANCH   1   7
BRANCH   3  17
HETATM   17  O3' PAP A 125      35.488   6.874  24.527  1.00 36.20    -0.261 OA
BRANCH  17  18
HETATM   18  P   PAP A 125      34.036   7.662  24.095  1.00 39.68     0.423 P 
HETATM   19  O1  PAP A 125      34.241   7.834  22.636  1.00 40.50    -0.617 OA
HETATM   20  O2  PAP A 125      33.003   6.666  24.476  1.00 39.38    -0.617 OA
HETATM   21  O3  PAP A 125      33.975   8.907  24.921  1.00 40.59    -0.617 OA
ENDBRANCH  17  18
ENDBRANCH   3  17
BRANCH   6  22
HETATM   22  N9  PAP A 125      39.619   5.810  24.310  1.00 29.22    -0.270 N 
HETATM   23  C4  PAP A 125      40.647   6.776  24.478  1.00 29.28     0.170 A 
HETATM   24  N3  PAP A 125      40.561   8.116  24.800  1.00 29.66    -0.205 NA
HETATM   25  C5  PAP A 125      41.831   6.091  24.232  1.00 29.93     0.155 A 
HETATM   26  C2  PAP A 125      41.792   8.680  24.831  1.00 28.29     0.202 A 
HETATM   27  N1  PAP A 125      43.008   8.156  24.613  1.00 27.66    -0.202 NA
HETATM   28  C6  PAP A 125      43.087   6.832  24.315  1.00 28.82     0.206 A 
HETATM   29  N6  PAP A 125      44.288   6.240  24.178  1.00 26.39    -0.125 N 
HETATM   30  N7  PAP A 125      41.542   4.725  23.915  1.00 30.19    -0.219 NA
HETATM   31  C8  PAP A 125      40.247   4.636  23.979  1.00 28.80     0.182 A 
ENDBRANCH   6  22
TORSDOF 8
ENDMDL
MODEL 7
REMARK VINA RESULT:    -6.386      3.993      5.958
REMARK INTER + INTRA:         -10.975
REMARK INTER:                  -9.786
REMARK INTRA:                  -1.189
REMARK UNBOUND:                -1.602
REMARK  8 active torsions:
REMARK  status: ('A' for Active; 'I' for Inactive)
REMARK    1  A    between atoms: P_1  and  O3'_9 
REMARK    2  A    between atoms: PA_2  and  O5'_5 
REMARK    3  A    between atoms: PA_2  and  O3A_23 
REMARK    4  A    between atoms: PB_3  and  O3A_23 
REMARK    5  A    between atoms: C5'_4  and  O5'_5 
REMARK    6  A    between atoms: C5'_4  and  C4'_6 
REMARK    7  A    between atoms: C3'_8  and  O3'_9 
REMARK    8  A    between atoms: C1'_12  and  N9_31 
ROOT
HETATM    1  C4' PAP A 125      37.704   2.568  22.015  1.00 30.66     0.178 C 
HETATM    2  O4' PAP A 125      38.393   2.975  20.827  1.00 30.64    -0.331 OA
HETATM    3  C3' PAP A 125      38.685   1.667  22.813  1.00 32.01     0.192 C 
HETATM    4  C2' PAP A 125      40.022   2.101  22.225  1.00 31.03     0.231 C 
HETATM    5  O2' PAP A 125      41.034   1.093  22.445  1.00 29.14    -0.216 OA
HETATM    6  C1' PAP A 125      39.551   2.159  20.758  1.00 29.59     0.241 C 
ENDROOT
BRANCH   1   7
HETATM    7  C5' PAP A 125      37.348   3.837  22.734  1.00 29.07     0.187 C 
BRANCH   7   8
HETATM    8  O5' PAP A 125      36.133   3.566  23.403  1.00 30.13    -0.268 OA
BRANCH   8   9
HETATM    9  PA  PAP A 125      35.885   4.085  24.927  1.00 31.22     0.419 P 
HETATM   10  O1A PAP A 125      35.130   3.007  25.631  1.00 32.37    -0.624 OA
HETATM   11  O2A PAP A 125      37.185   4.530  25.499  1.00 32.57    -0.624 OA
BRANCH   9  12
HETATM   12  O3A PAP A 125      34.734   5.353  24.768  1.00 29.92    -0.173 OA
BRANCH  12  13
HETATM   13  PB  PAP A 125      34.666   6.863  24.119  1.00 26.94     0.431 P 
HETATM   14  O1B PAP A 125      35.267   7.751  25.135  1.00 24.20    -0.616 OA
HETATM   15  O2B PAP A 125      35.462   6.734  22.851  1.00 26.86    -0.616 OA
HETATM   16  O3B PAP A 125      33.225   7.114  23.884  1.00 28.16    -0.616 OA
ENDBRANCH  12  13
ENDBRANCH   9  12
ENDBRANCH   8   9
ENDBRANCH   7   8
ENDBRANCH   1   7
BRANCH   3  17
HETATM   17  O3' PAP A 125      38.405   0.269  22.520  1.00 36.20    -0.261 OA
BRANCH  17  18
HETATM   18  P   PAP A 125      37.564  -0.708  23.640  1.00 39.68     0.423 P 
HETATM   19  O1  PAP A 125      37.251   0.289  24.694  1.00 40.50    -0.617 OA
HETATM   20  O2  PAP A 125      36.399  -1.178  22.848  1.00 39.38    -0.617 OA
HETATM   21  O3  PAP A 125      38.497  -1.816  24.012  1.00 40.59    -0.617 OA
ENDBRANCH  17  18
ENDBRANCH   3  17
BRANCH   6  22
HETATM   22  N9  PAP A 125      40.437   2.861  19.801  1.00 29.22    -0.270 N 
HETATM   23  C4  PAP A 125      40.643   2.670  18.409  1.00 29.28     0.170 A 
HETATM   24  N3  PAP A 125      40.083   1.749  17.547  1.00 29.66    -0.205 NA
HETATM   25  C5  PAP A 125      41.582   3.630  18.047  1.00 29.93     0.155 A 
HETATM   26  C2  PAP A 125      40.583   1.897  16.297  1.00 28.29     0.202 A 
HETATM   27  N1  PAP A 125      41.484   2.761  15.804  1.00 27.66    -0.202 NA
HETATM   28  C6  PAP A 125      42.018   3.678  16.654  1.00 28.82     0.206 A 
HETATM   29  N6  PAP A 125      42.856   4.624  16.190  1.00 26.39    -0.125 N 
HETATM   30  N7  PAP A 125      41.951   4.401  19.196  1.00 30.19    -0.219 NA
HETATM   31  C8  PAP A 125      41.252   3.901  20.171  1.00 28.80     0.182 A 
ENDBRANCH   6  22
TORSDOF 8
ENDMDL
MODEL 8
REMARK VINA RESULT:    -6.364      2.055      3.535
REMARK INTER + INTRA:         -10.943
REMARK INTER:                  -9.615
REMARK INTRA:                  -1.328
REMARK UNBOUND:                -1.602
REMARK  8 active torsions:
REMARK  status: ('A' for Active; 'I' for Inactive)
REMARK    1  A    between atoms: P_1  and  O3'_9 
REMARK    2  A    between atoms: PA_2  and  O5'_5 
REMARK    3  A    between atoms: PA_2  and  O3A_23 
REMARK    4  A    between atoms: PB_3  and  O3A_23 
REMARK    5  A    between atoms: C5'_4  and  O5'_5 
REMARK    6  A    between atoms: C5'_4  and  C4'_6 
REMARK    7  A    between atoms: C3'_8  and  O3'_9 
REMARK    8  A    between atoms: C1'_12  and  N9_31 
ROOT
HETATM    1  C4' PAP A 125      38.189   2.205  23.988  1.00 30.66     0.178 C 
HETATM    2  O4' PAP A 125      38.603   0.851  24.197  1.00 30.64    -0.331 OA
HETATM    3  C3' PAP A 125      38.624   2.587  22.546  1.00 32.01     0.192 C 
HETATM    4  C2' PAP A 125      38.772   1.209  21.913  1.00 31.03     0.231 C 
HETATM    5  O2' PAP A 125      39.618   1.267  20.744  1.00 29.14    -0.216 OA
HETATM    6  C1' PAP A 125      39.470   0.544  23.117  1.00 29.59     0.241 C 
ENDROOT
BRANCH   1   7
HETATM    7  C5' PAP A 125      36.700   2.210  24.178  1.00 29.07     0.187 C 
BRANCH   7   8
HETATM    8  O5' PAP A 125      36.256   3.449  23.660  1.00 30.13    -0.268 OA
BRANCH   8   9
HETATM    9  PA  PAP A 125      36.138   4.760  24.618  1.00 31.22     0.419 P 
HETATM   10  O1A PAP A 125      35.644   4.282  25.943  1.00 32.37    -0.624 OA
HETATM   11  O2A PAP A 125      37.424   5.508  24.569  1.00 32.57    -0.624 OA
BRANCH   9  12
HETATM   12  O3A PAP A 125      34.806   5.642  23.981  1.00 29.92    -0.173 OA
BRANCH  12  13
HETATM   13  PB  PAP A 125      34.141   7.138  24.151  1.00 26.94     0.431 P 
HETATM   14  O1B PAP A 125      34.949   7.807  25.191  1.00 24.20    -0.616 OA
HETATM   15  O2B PAP A 125      34.270   7.734  22.778  1.00 26.86    -0.616 OA
HETATM   16  O3B PAP A 125      32.737   6.889  24.553  1.00 28.16    -0.616 OA
ENDBRANCH  12  13
ENDBRANCH   9  12
ENDBRANCH   8   9
ENDBRANCH   7   8
ENDBRANCH   1   7
BRANCH   3  17
HETATM   17  O3' PAP A 125      39.898   3.289  22.595  1.00 36.20    -0.261 OA
BRANCH  17  18
HETATM   18  P   PAP A 125      40.067   4.845  21.913  1.00 39.68     0.423 P 
HETATM   19  O1  PAP A 125      40.525   5.616  23.096  1.00 40.50    -0.617 OA
HETATM   20  O2  PAP A 125      41.095   4.628  20.863  1.00 39.38    -0.617 OA
HETATM   21  O3  PAP A 125      38.728   5.202  21.350  1.00 40.59    -0.617 OA
ENDBRANCH  17  18
ENDBRANCH   3  17
BRANCH   6  22
HETATM   22  N9  PAP A 125      39.540  -0.935  23.113  1.00 29.22    -0.270 N 
HETATM   23  C4  PAP A 125      38.518  -1.918  23.025  1.00 29.28     0.170 A 
HETATM   24  N3  PAP A 125      37.149  -1.769  22.937  1.00 29.66    -0.205 NA
HETATM   25  C5  PAP A 125      39.185  -3.138  23.057  1.00 29.93     0.155 A 
HETATM   26  C2  PAP A 125      36.537  -2.976  22.900  1.00 28.29     0.202 A 
HETATM   27  N1  PAP A 125      37.039  -4.220  22.930  1.00 27.66    -0.202 NA
HETATM   28  C6  PAP A 125      38.389  -4.361  22.998  1.00 28.82     0.206 A 
HETATM   29  N6  PAP A 125      38.946  -5.585  22.938  1.00 26.39    -0.125 N 
HETATM   30  N7  PAP A 125      40.595  -2.914  23.167  1.00 30.19    -0.219 NA
HETATM   31  C8  PAP A 125      40.726  -1.621  23.194  1.00 28.80     0.182 A 
ENDBRANCH   6  22
TORSDOF 8
ENDMDL
