MODEL 1
REMARK VINA RESULT:    -6.487      0.000      0.000
REMARK INTER + INTRA:         -10.787
REMARK INTER:                  -9.520
REMARK INTRA:                  -1.267
REMARK UNBOUND:                -1.267
REMARK  8 active torsions:
REMARK  status: ('A' for Active; 'I' for Inactive)
REMARK    1  A    between atoms: P_1  and  O3'_9 
REMARK    2  A    between atoms: PA_2  and  O5'_5 
REMARK    3  A    between atoms: PA_2  and  O3A_23 
REMARK    4  A    between atoms: PB_3  and  O3A_23 
REMARK    5  A    between atoms: C5'_4  and  O5'_5 
REMARK    6  A    between atoms: C5'_4  and  C4'_6 
REMARK    7  A    between atoms: C3'_8  and  O3'_9 
REMARK    8  A    between atoms: C1'_12  and  N9_31 
ROOT
HETATM    1  C4' PAP A 125      41.060  -3.455  25.310  1.00 30.66     0.178 C 
HETATM    2  O4' PAP A 125      40.661  -4.179  26.478  1.00 30.64    -0.331 OA
HETATM    3  C3' PAP A 125      42.525  -2.997  25.547  1.00 32.01     0.192 C 
HETATM    4  C2' PAP A 125      42.966  -3.981  26.624  1.00 31.03     0.231 C 
HETATM    5  O2' PAP A 125      44.107  -3.474  27.351  1.00 29.14    -0.216 OA
HETATM    6  C1' PAP A 125      41.664  -3.925  27.448  1.00 29.59     0.241 C 
ENDROOT
BRANCH   1   7
HETATM    7  C5' PAP A 125      40.918  -4.416  24.166  1.00 29.07     0.187 C 
BRANCH   7   8
HETATM    8  O5' PAP A 125      39.599  -4.918  24.252  1.00 30.13    -0.268 OA
BRANCH   8   9
HETATM    9  PA  PAP A 125      38.682  -5.091  22.918  1.00 31.22     0.419 P 
HETATM   10  O1A PAP A 125      39.600  -5.511  21.818  1.00 32.37    -0.624 OA
HETATM   11  O2A PAP A 125      37.521  -5.963  23.243  1.00 32.57    -0.624 OA
BRANCH   9  12
HETATM   12  O3A PAP A 125      38.238  -3.487  22.488  1.00 29.92    -0.173 OA
BRANCH  12  13
HETATM   13  PB  PAP A 125      37.429  -2.223  23.165  1.00 26.94     0.431 P 
HETATM   14  O1B PAP A 125      37.456  -2.479  24.619  1.00 24.20    -0.616 OA
HETATM   15  O2B PAP A 125      38.222  -1.026  22.724  1.00 26.86    -0.616 OA
HETATM   16  O3B PAP A 125      36.071  -2.278  22.574  1.00 28.16    -0.616 OA
ENDBRANCH  12  13
ENDBRANCH   9  12
ENDBRANCH   8   9
ENDBRANCH   7   8
ENDBRANCH   1   7
BRANCH   3  17
HETATM   17  O3' PAP A 125      42.531  -1.629  26.044  1.00 36.20    -0.261 OA
BRANCH  17  18
HETATM   18  P   PAP A 125      42.572  -0.306  24.965  1.00 39.68     0.423 P 
HETATM   19  O1  PAP A 125      43.353  -0.889  23.846  1.00 40.50    -0.617 OA
HETATM   20  O2  PAP A 125      41.134  -0.076  24.679  1.00 39.38    -0.617 OA
HETATM   21  O3  PAP A 125      43.204   0.824  25.713  1.00 40.59    -0.617 OA
ENDBRANCH  17  18
ENDBRANCH   3  17
BRANCH   6  22
HETATM   22  N9  PAP A 125      41.471  -4.986  28.463  1.00 29.22    -0.270 N 
HETATM   23  C4  PAP A 125      41.228  -6.378  28.322  1.00 29.28     0.170 A 
HETATM   24  N3  PAP A 125      41.082  -7.143  27.182  1.00 29.66    -0.205 NA
HETATM   25  C5  PAP A 125      41.146  -6.864  29.622  1.00 29.93     0.155 A 
HETATM   26  C2  PAP A 125      40.832  -8.435  27.501  1.00 28.29     0.202 A 
HETATM   27  N1  PAP A 125      40.720  -9.043  28.692  1.00 27.66    -0.202 NA
HETATM   28  C6  PAP A 125      40.883  -8.288  29.810  1.00 28.82     0.206 A 
HETATM   29  N6  PAP A 125      40.870  -8.868  31.026  1.00 26.39    -0.125 N 
HETATM   30  N7  PAP A 125      41.332  -5.791  30.552  1.00 30.19    -0.219 NA
HETATM   31  C8  PAP A 125      41.514  -4.738  29.812  1.00 28.80     0.182 A 
ENDBRANCH   6  22
TORSDOF 8
ENDMDL
MODEL 2
REMARK VINA RESULT:    -6.212      0.819      2.242
REMARK INTER + INTRA:         -10.384
REMARK INTER:                  -9.265
REMARK INTRA:                  -1.119
REMARK UNBOUND:                -1.267
REMARK  8 active torsions:
REMARK  status: ('A' for Active; 'I' for Inactive)
REMARK    1  A    between atoms: P_1  and  O3'_9 
REMARK    2  A    between atoms: PA_2  and  O5'_5 
REMARK    3  A    between atoms: PA_2  and  O3A_23 
REMARK    4  A    between atoms: PB_3  and  O3A_23 
REMARK    5  A    between atoms: C5'_4  and  O5'_5 
REMARK    6  A    between atoms: C5'_4  and  C4'_6 
REMARK    7  A    between atoms: C3'_8  and  O3'_9 
REMARK    8  A    between atoms: C1'_12  and  N9_31 
ROOT
HETATM    1  C4' PAP A 125      40.898  -3.092  25.711  1.00 30.66     0.178 C 
HETATM    2  O4' PAP A 125      40.592  -3.838  26.894  1.00 30.64    -0.331 OA
HETATM    3  C3' PAP A 125      42.431  -2.842  25.725  1.00 32.01     0.192 C 
HETATM    4  C2' PAP A 125      42.896  -3.945  26.668  1.00 31.03     0.231 C 
HETATM    5  O2' PAP A 125      44.195  -3.638  27.220  1.00 29.14    -0.216 OA
HETATM    6  C1' PAP A 125      41.760  -3.780  27.697  1.00 29.59     0.241 C 
ENDROOT
BRANCH   1   7
HETATM    7  C5' PAP A 125      40.448  -3.947  24.562  1.00 29.07     0.187 C 
BRANCH   7   8
HETATM    8  O5' PAP A 125      39.036  -3.869  24.560  1.00 30.13    -0.268 OA
BRANCH   8   9
HETATM    9  PA  PAP A 125      38.245  -3.093  23.367  1.00 31.22     0.419 P 
HETATM   10  O1A PAP A 125      36.807  -3.049  23.763  1.00 32.37    -0.624 OA
HETATM   11  O2A PAP A 125      38.943  -1.809  23.084  1.00 32.57    -0.624 OA
BRANCH   9  12
HETATM   12  O3A PAP A 125      38.271  -4.194  22.046  1.00 29.92    -0.173 OA
BRANCH  12  13
HETATM   13  PB  PAP A 125      37.936  -5.783  21.777  1.00 26.94     0.431 P 
HETATM   14  O1B PAP A 125      39.233  -6.479  21.899  1.00 24.20    -0.616 OA
HETATM   15  O2B PAP A 125      36.942  -6.117  22.853  1.00 26.86    -0.616 OA
HETATM   16  O3B PAP A 125      37.361  -5.827  20.412  1.00 28.16    -0.616 OA
ENDBRANCH  12  13
ENDBRANCH   9  12
ENDBRANCH   8   9
ENDBRANCH   7   8
ENDBRANCH   1   7
BRANCH   3  17
HETATM   17  O3' PAP A 125      42.701  -1.522  26.278  1.00 36.20    -0.261 OA
BRANCH  17  18
HETATM   18  P   PAP A 125      42.800  -0.153  25.264  1.00 39.68     0.423 P 
HETATM   19  O1  PAP A 125      43.109   0.904  26.259  1.00 40.50    -0.617 OA
HETATM   20  O2  PAP A 125      43.916  -0.507  24.350  1.00 39.38    -0.617 OA
HETATM   21  O3  PAP A 125      41.483  -0.056  24.562  1.00 40.59    -0.617 OA
ENDBRANCH  17  18
ENDBRANCH   3  17
BRANCH   6  22
HETATM   22  N9  PAP A 125      41.584  -4.874  28.679  1.00 29.22    -0.270 N 
HETATM   23  C4  PAP A 125      41.288  -6.251  28.498  1.00 29.28     0.170 A 
HETATM   24  N3  PAP A 125      41.056  -6.964  27.339  1.00 29.66    -0.205 NA
HETATM   25  C5  PAP A 125      41.258  -6.786  29.781  1.00 29.93     0.155 A 
HETATM   26  C2  PAP A 125      40.780  -8.260  27.621  1.00 28.29     0.202 A 
HETATM   27  N1  PAP A 125      40.710  -8.911  28.792  1.00 27.66    -0.202 NA
HETATM   28  C6  PAP A 125      40.957  -8.208  29.928  1.00 28.82     0.206 A 
HETATM   29  N6  PAP A 125      40.989  -8.835  31.119  1.00 26.39    -0.125 N 
HETATM   30  N7  PAP A 125      41.528  -5.758  30.740  1.00 30.19    -0.219 NA
HETATM   31  C8  PAP A 125      41.707  -4.682  30.032  1.00 28.80     0.182 A 
ENDBRANCH   6  22
TORSDOF 8
ENDMDL
MODEL 3
REMARK VINA RESULT:    -6.176      6.827      9.684
REMARK INTER + INTRA:         -10.331
REMARK INTER:                  -9.130
REMARK INTRA:                  -1.201
REMARK UNBOUND:                -1.267
REMARK  8 active torsions:
REMARK  status: ('A' for Active; 'I' for Inactive)
REMARK    1  A    between atoms: P_1  and  O3'_9 
REMARK    2  A    between atoms: PA_2  and  O5'_5 
REMARK    3  A    between atoms: PA_2  and  O3A_23 
REMARK    4  A    between atoms: PB_3  and  O3A_23 
REMARK    5  A    between atoms: C5'_4  and  O5'_5 
REMARK    6  A    between atoms: C5'_4  and  C4'_6 
REMARK    7  A    between atoms: C3'_8  and  O3'_9 
REMARK    8  A    between atoms: C1'_12  and  N9_31 
ROOT
HETATM    1  C4' PAP A 125      38.997  -5.221  20.742  1.00 30.66     0.178 C 
HETATM    2  O4' PAP A 125      38.377  -4.850  19.507  1.00 30.64    -0.331 OA
HETATM    3  C3' PAP A 125      40.530  -5.205  20.494  1.00 32.01     0.192 C 
HETATM    4  C2' PAP A 125      40.617  -4.305  19.267  1.00 31.03     0.231 C 
HETATM    5  O2' PAP A 125      41.858  -4.517  18.559  1.00 29.14    -0.216 OA
HETATM    6  C1' PAP A 125      39.404  -4.907  18.530  1.00 29.59     0.241 C 
ENDROOT
BRANCH   1   7
HETATM    7  C5' PAP A 125      38.550  -4.197  21.746  1.00 29.07     0.187 C 
BRANCH   7   8
HETATM    8  O5' PAP A 125      39.718  -3.819  22.448  1.00 30.13    -0.268 OA
BRANCH   8   9
HETATM    9  PA  PAP A 125      39.631  -3.272  23.979  1.00 31.22     0.419 P 
HETATM   10  O1A PAP A 125      39.403  -4.463  24.849  1.00 32.37    -0.624 OA
HETATM   11  O2A PAP A 125      40.815  -2.413  24.250  1.00 32.57    -0.624 OA
BRANCH   9  12
HETATM   12  O3A PAP A 125      38.136  -2.424  24.049  1.00 29.92    -0.173 OA
BRANCH  12  13
HETATM   13  PB  PAP A 125      37.476  -1.062  23.403  1.00 26.94     0.431 P 
HETATM   14  O1B PAP A 125      36.201  -1.497  22.799  1.00 24.20    -0.616 OA
HETATM   15  O2B PAP A 125      37.330  -0.150  24.588  1.00 26.86    -0.616 OA
HETATM   16  O3B PAP A 125      38.473  -0.585  22.416  1.00 28.16    -0.616 OA
ENDBRANCH  12  13
ENDBRANCH   9  12
ENDBRANCH   8   9
ENDBRANCH   7   8
ENDBRANCH   1   7
BRANCH   3  17
HETATM   17  O3' PAP A 125      40.985  -6.556  20.195  1.00 36.20    -0.261 OA
BRANCH  17  18
HETATM   18  P   PAP A 125      41.013  -7.758  21.407  1.00 39.68     0.423 P 
HETATM   19  O1  PAP A 125      39.801  -8.536  21.050  1.00 40.50    -0.617 OA
HETATM   20  O2  PAP A 125      42.304  -8.446  21.150  1.00 39.38    -0.617 OA
HETATM   21  O3  PAP A 125      40.991  -7.034  22.715  1.00 40.59    -0.617 OA
ENDBRANCH  17  18
ENDBRANCH   3  17
BRANCH   6  22
HETATM   22  N9  PAP A 125      38.866  -4.132  17.388  1.00 29.22    -0.270 N 
HETATM   23  C4  PAP A 125      37.908  -4.474  16.397  1.00 29.28     0.170 A 
HETATM   24  N3  PAP A 125      37.212  -5.651  16.204  1.00 29.66    -0.205 NA
HETATM   25  C5  PAP A 125      37.798  -3.344  15.595  1.00 29.93     0.155 A 
HETATM   26  C2  PAP A 125      36.413  -5.561  15.115  1.00 28.29     0.202 A 
HETATM   27  N1  PAP A 125      36.208  -4.554  14.252  1.00 27.66    -0.202 NA
HETATM   28  C6  PAP A 125      36.882  -3.392  14.458  1.00 28.82     0.206 A 
HETATM   29  N6  PAP A 125      36.643  -2.322  13.675  1.00 26.39    -0.125 N 
HETATM   30  N7  PAP A 125      38.674  -2.321  16.079  1.00 30.19    -0.219 NA
HETATM   31  C8  PAP A 125      39.258  -2.846  17.115  1.00 28.80     0.182 A 
ENDBRANCH   6  22
TORSDOF 8
ENDMDL
MODEL 4
REMARK VINA RESULT:    -5.894      6.496      9.644
REMARK INTER + INTRA:          -9.918
REMARK INTER:                  -8.915
REMARK INTRA:                  -1.002
REMARK UNBOUND:                -1.267
REMARK  8 active torsions:
REMARK  status: ('A' for Active; 'I' for Inactive)
REMARK    1  A    between atoms: P_1  and  O3'_9 
REMARK    2  A    between atoms: PA_2  and  O5'_5 
REMARK    3  A    between atoms: PA_2  and  O3A_23 
REMARK    4  A    between atoms: PB_3  and  O3A_23 
REMARK    5  A    between atoms: C5'_4  and  O5'_5 
REMARK    6  A    between atoms: C5'_4  and  C4'_6 
REMARK    7  A    between atoms: C3'_8  and  O3'_9 
REMARK    8  A    between atoms: C1'_12  and  N9_31 
ROOT
HETATM    1  C4' PAP A 125      39.181  -5.990  21.196  1.00 30.66     0.178 C 
HETATM    2  O4' PAP A 125      38.323  -5.531  20.147  1.00 30.64    -0.331 OA
HETATM    3  C3' PAP A 125      40.240  -6.914  20.535  1.00 32.01     0.192 C 
HETATM    4  C2' PAP A 125      40.169  -6.446  19.087  1.00 31.03     0.231 C 
HETATM    5  O2' PAP A 125      40.692  -7.454  18.193  1.00 29.14    -0.216 OA
HETATM    6  C1' PAP A 125      38.633  -6.334  19.020  1.00 29.59     0.241 C 
ENDROOT
BRANCH   1   7
HETATM    7  C5' PAP A 125      39.774  -4.753  21.807  1.00 29.07     0.187 C 
BRANCH   7   8
HETATM    8  O5' PAP A 125      39.383  -4.776  23.166  1.00 30.13    -0.268 OA
BRANCH   8   9
HETATM    9  PA  PAP A 125      39.594  -3.471  24.117  1.00 31.22     0.419 P 
HETATM   10  O1A PAP A 125      39.653  -3.969  25.523  1.00 32.37    -0.624 OA
HETATM   11  O2A PAP A 125      40.740  -2.678  23.597  1.00 32.57    -0.624 OA
BRANCH   9  12
HETATM   12  O3A PAP A 125      38.092  -2.637  24.043  1.00 29.92    -0.173 OA
BRANCH  12  13
HETATM   13  PB  PAP A 125      37.493  -1.262  23.365  1.00 26.94     0.431 P 
HETATM   14  O1B PAP A 125      37.345  -0.309  24.484  1.00 24.20    -0.616 OA
HETATM   15  O2B PAP A 125      38.540  -0.887  22.356  1.00 26.86    -0.616 OA
HETATM   16  O3B PAP A 125      36.206  -1.668  22.752  1.00 28.16    -0.616 OA
ENDBRANCH  12  13
ENDBRANCH   9  12
ENDBRANCH   8   9
ENDBRANCH   7   8
ENDBRANCH   1   7
BRANCH   3  17
HETATM   17  O3' PAP A 125      39.819  -8.302  20.666  1.00 36.20    -0.261 OA
BRANCH  17  18
HETATM   18  P   PAP A 125      40.880  -9.482  21.297  1.00 39.68     0.423 P 
HETATM   19  O1  PAP A 125      39.934 -10.600  21.540  1.00 40.50    -0.617 OA
HETATM   20  O2  PAP A 125      41.832  -9.692  20.178  1.00 39.38    -0.617 OA
HETATM   21  O3  PAP A 125      41.522  -8.866  22.499  1.00 40.59    -0.617 OA
ENDBRANCH  17  18
ENDBRANCH   3  17
BRANCH   6  22
HETATM   22  N9  PAP A 125      38.069  -5.587  17.872  1.00 29.22    -0.270 N 
HETATM   23  C4  PAP A 125      38.412  -4.324  17.320  1.00 29.28     0.170 A 
HETATM   24  N3  PAP A 125      39.369  -3.413  17.719  1.00 29.66    -0.205 NA
HETATM   25  C5  PAP A 125      37.547  -4.151  16.246  1.00 29.93     0.155 A 
HETATM   26  C2  PAP A 125      39.344  -2.315  16.926  1.00 28.29     0.202 A 
HETATM   27  N1  PAP A 125      38.574  -2.006  15.872  1.00 27.66    -0.202 NA
HETATM   28  C6  PAP A 125      37.646  -2.916  15.473  1.00 28.82     0.206 A 
HETATM   29  N6  PAP A 125      36.911  -2.693  14.366  1.00 26.39    -0.125 N 
HETATM   30  N7  PAP A 125      36.681  -5.286  16.135  1.00 30.19    -0.219 NA
HETATM   31  C8  PAP A 125      37.039  -6.074  17.105  1.00 28.80     0.182 A 
ENDBRANCH   6  22
TORSDOF 8
ENDMDL
MODEL 5
REMARK VINA RESULT:    -5.835      7.239      9.490
REMARK INTER + INTRA:          -9.831
REMARK INTER:                  -8.323
REMARK INTRA:                  -1.508
REMARK UNBOUND:                -1.267
REMARK  8 active torsions:
REMARK  status: ('A' for Active; 'I' for Inactive)
REMARK    1  A    between atoms: P_1  and  O3'_9 
REMARK    2  A    between atoms: PA_2  and  O5'_5 
REMARK    3  A    between atoms: PA_2  and  O3A_23 
REMARK    4  A    between atoms: PB_3  and  O3A_23 
REMARK    5  A    between atoms: C5'_4  and  O5'_5 
REMARK    6  A    between atoms: C5'_4  and  C4'_6 
REMARK    7  A    between atoms: C3'_8  and  O3'_9 
REMARK    8  A    between atoms: C1'_12  and  N9_31 
ROOT
HETATM    1  C4' PAP A 125      38.116  -5.357  18.826  1.00 30.66     0.178 C 
HETATM    2  O4' PAP A 125      37.835  -6.639  18.256  1.00 30.64    -0.331 OA
HETATM    3  C3' PAP A 125      38.784  -5.618  20.204  1.00 32.01     0.192 C 
HETATM    4  C2' PAP A 125      39.284  -7.046  20.019  1.00 31.03     0.231 C 
HETATM    5  O2' PAP A 125      39.508  -7.683  21.296  1.00 29.14    -0.216 OA
HETATM    6  C1' PAP A 125      38.024  -7.575  19.305  1.00 29.59     0.241 C 
ENDROOT
BRANCH   1   7
HETATM    7  C5' PAP A 125      39.025  -4.668  17.850  1.00 29.07     0.187 C 
BRANCH   7   8
HETATM    8  O5' PAP A 125      38.233  -3.673  17.231  1.00 30.13    -0.268 OA
BRANCH   8   9
HETATM    9  PA  PAP A 125      38.567  -3.158  15.723  1.00 31.22     0.419 P 
HETATM   10  O1A PAP A 125      38.100  -1.743  15.639  1.00 32.37    -0.624 OA
HETATM   11  O2A PAP A 125      39.994  -3.453  15.420  1.00 32.57    -0.624 OA
BRANCH   9  12
HETATM   12  O3A PAP A 125      37.461  -4.013  14.722  1.00 29.92    -0.173 OA
BRANCH  12  13
HETATM   13  PB  PAP A 125      36.890  -5.549  14.570  1.00 26.94     0.431 P 
HETATM   14  O1B PAP A 125      38.061  -6.422  14.786  1.00 24.20    -0.616 OA
HETATM   15  O2B PAP A 125      35.838  -5.636  15.639  1.00 26.86    -0.616 OA
HETATM   16  O3B PAP A 125      36.339  -5.618  13.196  1.00 28.16    -0.616 OA
ENDBRANCH  12  13
ENDBRANCH   9  12
ENDBRANCH   8   9
ENDBRANCH   7   8
ENDBRANCH   1   7
BRANCH   3  17
HETATM   17  O3' PAP A 125      37.776  -5.540  21.252  1.00 36.20    -0.261 OA
BRANCH  17  18
HETATM   18  P   PAP A 125      37.957  -4.458  22.561  1.00 39.68     0.423 P 
HETATM   19  O1  PAP A 125      36.535  -4.190  22.894  1.00 40.50    -0.617 OA
HETATM   20  O2  PAP A 125      38.695  -5.275  23.556  1.00 39.38    -0.617 OA
HETATM   21  O3  PAP A 125      38.759  -3.307  22.044  1.00 40.59    -0.617 OA
ENDBRANCH  17  18
ENDBRANCH   3  17
BRANCH   6  22
HETATM   22  N9  PAP A 125      38.147  -8.880  18.616  1.00 29.22    -0.270 N 
HETATM   23  C4  PAP A 125      38.255 -10.200  19.128  1.00 29.28     0.170 A 
HETATM   24  N3  PAP A 125      38.298 -10.643  20.435  1.00 29.66    -0.205 NA
HETATM   25  C5  PAP A 125      38.329 -11.019  18.007  1.00 29.93     0.155 A 
HETATM   26  C2  PAP A 125      38.436 -11.990  20.479  1.00 28.29     0.202 A 
HETATM   27  N1  PAP A 125      38.525 -12.899  19.496  1.00 27.66    -0.202 NA
HETATM   28  C6  PAP A 125      38.464 -12.458  18.212  1.00 28.82     0.206 A 
HETATM   29  N6  PAP A 125      38.457 -13.339  17.193  1.00 26.39    -0.125 N 
HETATM   30  N7  PAP A 125      38.269 -10.219  16.820  1.00 30.19    -0.219 NA
HETATM   31  C8  PAP A 125      38.164  -8.996  17.248  1.00 28.80     0.182 A 
ENDBRANCH   6  22
TORSDOF 8
ENDMDL
MODEL 6
REMARK VINA RESULT:    -5.798     19.481     22.133
REMARK INTER + INTRA:          -9.777
REMARK INTER:                  -8.237
REMARK INTRA:                  -1.540
REMARK UNBOUND:                -1.267
REMARK  8 active torsions:
REMARK  status: ('A' for Active; 'I' for Inactive)
REMARK    1  A    between atoms: P_1  and  O3'_9 
REMARK    2  A    between atoms: PA_2  and  O5'_5 
REMARK    3  A    between atoms: PA_2  and  O3A_23 
REMARK    4  A    between atoms: PB_3  and  O3A_23 
REMARK    5  A    between atoms: C5'_4  and  O5'_5 
REMARK    6  A    between atoms: C5'_4  and  C4'_6 
REMARK    7  A    between atoms: C3'_8  and  O3'_9 
REMARK    8  A    between atoms: C1'_12  and  N9_31 
ROOT
HETATM    1  C4' PAP A 125      31.736  -8.201   9.256  1.00 30.66     0.178 C 
HETATM    2  O4' PAP A 125      31.478  -6.863   8.817  1.00 30.64    -0.331 OA
HETATM    3  C3' PAP A 125      31.205  -9.146   8.143  1.00 32.01     0.192 C 
HETATM    4  C2' PAP A 125      31.179  -8.201   6.948  1.00 31.03     0.231 C 
HETATM    5  O2' PAP A 125      30.285  -8.689   5.923  1.00 29.14    -0.216 OA
HETATM    6  C1' PAP A 125      30.606  -6.986   7.705  1.00 29.59     0.241 C 
ENDROOT
BRANCH   1   7
HETATM    7  C5' PAP A 125      33.222  -8.288   9.447  1.00 29.07     0.187 C 
BRANCH   7   8
HETATM    8  O5' PAP A 125      33.762  -7.198   8.726  1.00 30.13    -0.268 OA
BRANCH   8   9
HETATM    9  PA  PAP A 125      35.091  -7.383   7.803  1.00 31.22     0.419 P 
HETATM   10  O1A PAP A 125      36.267  -7.250   8.711  1.00 32.37    -0.624 OA
HETATM   11  O2A PAP A 125      34.949  -8.631   7.003  1.00 32.57    -0.624 OA
BRANCH   9  12
HETATM   12  O3A PAP A 125      35.152  -5.956   6.845  1.00 29.92    -0.173 OA
BRANCH  12  13
HETATM   13  PB  PAP A 125      35.729  -4.421   6.980  1.00 26.94     0.431 P 
HETATM   14  O1B PAP A 125      35.088  -3.870   8.191  1.00 24.20    -0.616 OA
HETATM   15  O2B PAP A 125      37.214  -4.616   7.091  1.00 26.86    -0.616 OA
HETATM   16  O3B PAP A 125      35.317  -3.746   5.727  1.00 28.16    -0.616 OA
ENDBRANCH  12  13
ENDBRANCH   9  12
ENDBRANCH   8   9
ENDBRANCH   7   8
ENDBRANCH   1   7
BRANCH   3  17
HETATM   17  O3' PAP A 125      29.866  -9.599   8.491  1.00 36.20    -0.261 OA
BRANCH  17  18
HETATM   18  P   PAP A 125      29.532 -11.259   8.709  1.00 39.68     0.423 P 
HETATM   19  O1  PAP A 125      30.342 -11.545   9.919  1.00 40.50    -0.617 OA
HETATM   20  O2  PAP A 125      28.062 -11.270   8.915  1.00 39.38    -0.617 OA
HETATM   21  O3  PAP A 125      29.946 -11.938   7.442  1.00 40.59    -0.617 OA
ENDBRANCH  17  18
ENDBRANCH   3  17
BRANCH   6  22
HETATM   22  N9  PAP A 125      30.694  -5.674   7.024  1.00 29.22    -0.270 N 
HETATM   23  C4  PAP A 125      29.683  -4.822   6.506  1.00 29.28     0.170 A 
HETATM   24  N3  PAP A 125      28.313  -4.989   6.473  1.00 29.66    -0.205 NA
HETATM   25  C5  PAP A 125      30.363  -3.723   5.993  1.00 29.93     0.155 A 
HETATM   26  C2  PAP A 125      27.718  -3.939   5.858  1.00 28.29     0.202 A 
HETATM   27  N1  PAP A 125      28.234  -2.827   5.315  1.00 27.66    -0.202 NA
HETATM   28  C6  PAP A 125      29.582  -2.660   5.367  1.00 28.82     0.206 A 
HETATM   29  N6  PAP A 125      30.141  -1.519   4.918  1.00 26.39    -0.125 N 
HETATM   30  N7  PAP A 125      31.772  -3.893   6.187  1.00 30.19    -0.219 NA
HETATM   31  C8  PAP A 125      31.889  -5.040   6.788  1.00 28.80     0.182 A 
ENDBRANCH   6  22
TORSDOF 8
ENDMDL
MODEL 7
REMARK VINA RESULT:    -5.782     19.200     21.512
REMARK INTER + INTRA:          -9.753
REMARK INTER:                  -8.470
REMARK INTRA:                  -1.284
REMARK UNBOUND:                -1.267
REMARK  8 active torsions:
REMARK  status: ('A' for Active; 'I' for Inactive)
REMARK    1  A    between atoms: P_1  and  O3'_9 
REMARK    2  A    between atoms: PA_2  and  O5'_5 
REMARK    3  A    between atoms: PA_2  and  O3A_23 
REMARK    4  A    between atoms: PB_3  and  O3A_23 
REMARK    5  A    between atoms: C5'_4  and  O5'_5 
REMARK    6  A    between atoms: C5'_4  and  C4'_6 
REMARK    7  A    between atoms: C3'_8  and  O3'_9 
REMARK    8  A    between atoms: C1'_12  and  N9_31 
ROOT
HETATM    1  C4' PAP A 125      31.212  -6.050   7.535  1.00 30.66     0.178 C 
HETATM    2  O4' PAP A 125      30.854  -7.188   8.326  1.00 30.64    -0.331 OA
HETATM    3  C3' PAP A 125      32.602  -6.358   6.914  1.00 32.01     0.192 C 
HETATM    4  C2' PAP A 125      32.633  -7.879   7.011  1.00 31.03     0.231 C 
HETATM    5  O2' PAP A 125      33.989  -8.372   6.948  1.00 29.14    -0.216 OA
HETATM    6  C1' PAP A 125      32.032  -7.971   8.428  1.00 29.59     0.241 C 
ENDROOT
BRANCH   1   7
HETATM    7  C5' PAP A 125      30.124  -5.908   6.510  1.00 29.07     0.187 C 
BRANCH   7   8
HETATM    8  O5' PAP A 125      28.943  -6.356   7.145  1.00 30.13    -0.268 OA
BRANCH   8   9
HETATM    9  PA  PAP A 125      27.477  -5.933   6.575  1.00 31.22     0.419 P 
HETATM   10  O1A PAP A 125      27.110  -6.945   5.542  1.00 32.37    -0.624 OA
HETATM   11  O2A PAP A 125      26.556  -5.728   7.726  1.00 32.57    -0.624 OA
BRANCH   9  12
HETATM   12  O3A PAP A 125      27.765  -4.505   5.663  1.00 29.92    -0.173 OA
BRANCH  12  13
HETATM   13  PB  PAP A 125      27.857  -2.884   5.933  1.00 26.94     0.431 P 
HETATM   14  O1B PAP A 125      28.963  -2.712   6.897  1.00 24.20    -0.616 OA
HETATM   15  O2B PAP A 125      28.124  -2.318   4.567  1.00 26.86    -0.616 OA
HETATM   16  O3B PAP A 125      26.530  -2.510   6.474  1.00 28.16    -0.616 OA
ENDBRANCH  12  13
ENDBRANCH   9  12
ENDBRANCH   8   9
ENDBRANCH   7   8
ENDBRANCH   1   7
BRANCH   3  17
HETATM   17  O3' PAP A 125      33.643  -5.753   7.733  1.00 36.20    -0.261 OA
BRANCH  17  18
HETATM   18  P   PAP A 125      34.814  -4.724   7.039  1.00 39.68     0.423 P 
HETATM   19  O1  PAP A 125      34.040  -4.147   5.912  1.00 40.50    -0.617 OA
HETATM   20  O2  PAP A 125      35.115  -3.782   8.146  1.00 39.38    -0.617 OA
HETATM   21  O3  PAP A 125      35.977  -5.594   6.684  1.00 40.59    -0.617 OA
ENDBRANCH  17  18
ENDBRANCH   3  17
BRANCH   6  22
HETATM   22  N9  PAP A 125      31.552  -9.302   8.863  1.00 29.22    -0.270 N 
HETATM   23  C4  PAP A 125      30.567 -10.164   8.313  1.00 29.28     0.170 A 
HETATM   24  N3  PAP A 125      29.752  -9.993   7.212  1.00 29.66    -0.205 NA
HETATM   25  C5  PAP A 125      30.559 -11.280   9.143  1.00 29.93     0.155 A 
HETATM   26  C2  PAP A 125      28.930 -11.057   7.055  1.00 28.29     0.202 A 
HETATM   27  N1  PAP A 125      28.804 -12.187   7.767  1.00 27.66    -0.202 NA
HETATM   28  C6  PAP A 125      29.621 -12.358   8.839  1.00 28.82     0.206 A 
HETATM   29  N6  PAP A 125      29.597 -13.513   9.532  1.00 26.39    -0.125 N 
HETATM   30  N7  PAP A 125      31.520 -11.110  10.190  1.00 30.19    -0.219 NA
HETATM   31  C8  PAP A 125      32.055  -9.947   9.966  1.00 28.80     0.182 A 
ENDBRANCH   6  22
TORSDOF 8
ENDMDL
MODEL 8
REMARK VINA RESULT:    -5.698     19.475     21.801
REMARK INTER + INTRA:          -9.629
REMARK INTER:                  -8.194
REMARK INTRA:                  -1.435
REMARK UNBOUND:                -1.267
REMARK  8 active torsions:
REMARK  status: ('A' for Active; 'I' for Inactive)
REMARK    1  A    between atoms: P_1  and  O3'_9 
REMARK    2  A    between atoms: PA_2  and  O5'_5 
REMARK    3  A    between atoms: PA_2  and  O3A_23 
REMARK    4  A    between atoms: PB_3  and  O3A_23 
REMARK    5  A    between atoms: C5'_4  and  O5'_5 
REMARK    6  A    between atoms: C5'_4  and  C4'_6 
REMARK    7  A    between atoms: C3'_8  and  O3'_9 
REMARK    8  A    between atoms: C1'_12  and  N9_31 
ROOT
HETATM    1  C4' PAP A 125      31.350  -5.565   7.596  1.00 30.66     0.178 C 
HETATM    2  O4' PAP A 125      30.809  -6.679   8.312  1.00 30.64    -0.331 OA
HETATM    3  C3' PAP A 125      32.600  -6.088   6.836  1.00 32.01     0.192 C 
HETATM    4  C2' PAP A 125      32.312  -7.584   6.798  1.00 31.03     0.231 C 
HETATM    5  O2' PAP A 125      33.526  -8.337   6.580  1.00 29.14    -0.216 OA
HETATM    6  C1' PAP A 125      31.798  -7.694   8.247  1.00 29.59     0.241 C 
ENDROOT
BRANCH   1   7
HETATM    7  C5' PAP A 125      30.255  -5.098   6.681  1.00 29.07     0.187 C 
BRANCH   7   8
HETATM    8  O5' PAP A 125      29.047  -5.477   7.311  1.00 30.13    -0.268 OA
BRANCH   8   9
HETATM    9  PA  PAP A 125      27.638  -5.457   6.495  1.00 31.22     0.419 P 
HETATM   10  O1A PAP A 125      27.316  -4.024   6.229  1.00 32.37    -0.624 OA
HETATM   11  O2A PAP A 125      27.741  -6.387   5.337  1.00 32.57    -0.624 OA
BRANCH   9  12
HETATM   12  O3A PAP A 125      26.461  -5.931   7.655  1.00 29.92    -0.173 OA
BRANCH  12  13
HETATM   13  PB  PAP A 125      24.842  -5.753   7.892  1.00 26.94     0.431 P 
HETATM   14  O1B PAP A 125      24.705  -4.575   8.773  1.00 24.20    -0.616 OA
HETATM   15  O2B PAP A 125      24.306  -5.561   6.502  1.00 26.86    -0.616 OA
HETATM   16  O3B PAP A 125      24.406  -7.022   8.520  1.00 28.16    -0.616 OA
ENDBRANCH  12  13
ENDBRANCH   9  12
ENDBRANCH   8   9
ENDBRANCH   7   8
ENDBRANCH   1   7
BRANCH   3  17
HETATM   17  O3' PAP A 125      33.796  -5.797   7.615  1.00 36.20    -0.261 OA
BRANCH  17  18
HETATM   18  P   PAP A 125      34.985  -4.723   7.024  1.00 39.68     0.423 P 
HETATM   19  O1  PAP A 125      34.274  -4.139   5.860  1.00 40.50    -0.617 OA
HETATM   20  O2  PAP A 125      35.185  -3.800   8.170  1.00 39.38    -0.617 OA
HETATM   21  O3  PAP A 125      36.192  -5.556   6.731  1.00 40.59    -0.617 OA
ENDBRANCH  17  18
ENDBRANCH   3  17
BRANCH   6  22
HETATM   22  N9  PAP A 125      31.073  -8.935   8.604  1.00 29.22    -0.270 N 
HETATM   23  C4  PAP A 125      29.937  -9.554   8.018  1.00 29.28     0.170 A 
HETATM   24  N3  PAP A 125      29.164  -9.156   6.946  1.00 29.66    -0.205 NA
HETATM   25  C5  PAP A 125      29.720 -10.701   8.773  1.00 29.93     0.155 A 
HETATM   26  C2  PAP A 125      28.151 -10.030   6.735  1.00 28.29     0.202 A 
HETATM   27  N1  PAP A 125      27.814 -11.160   7.375  1.00 27.66    -0.202 NA
HETATM   28  C6  PAP A 125      28.591 -11.557   8.418  1.00 28.82     0.206 A 
HETATM   29  N6  PAP A 125      28.349 -12.730   9.034  1.00 26.39    -0.125 N 
HETATM   30  N7  PAP A 125      30.702 -10.790   9.811  1.00 30.19    -0.219 NA
HETATM   31  C8  PAP A 125      31.450  -9.738   9.652  1.00 28.80     0.182 A 
ENDBRANCH   6  22
TORSDOF 8
ENDMDL
MODEL 9
REMARK VINA RESULT:    -5.651      6.363      9.057
REMARK INTER + INTRA:          -9.561
REMARK INTER:                  -8.256
REMARK INTRA:                  -1.305
REMARK UNBOUND:                -1.267
REMARK  8 active torsions:
REMARK  status: ('A' for Active; 'I' for Inactive)
REMARK    1  A    between atoms: P_1  and  O3'_9 
REMARK    2  A    between atoms: PA_2  and  O5'_5 
REMARK    3  A    between atoms: PA_2  and  O3A_23 
REMARK    4  A    between atoms: PB_3  and  O3A_23 
REMARK    5  A    between atoms: C5'_4  and  O5'_5 
REMARK    6  A    between atoms: C5'_4  and  C4'_6 
REMARK    7  A    between atoms: C3'_8  and  O3'_9 
REMARK    8  A    between atoms: C1'_12  and  N9_31 
ROOT
HETATM    1  C4' PAP A 125      37.080  -7.049  18.506  1.00 30.66     0.178 C 
HETATM    2  O4' PAP A 125      37.404  -6.614  19.831  1.00 30.64    -0.331 OA
HETATM    3  C3' PAP A 125      37.997  -6.253  17.538  1.00 32.01     0.192 C 
HETATM    4  C2' PAP A 125      39.117  -5.830  18.480  1.00 31.03     0.231 C 
HETATM    5  O2' PAP A 125      39.835  -4.694  17.950  1.00 29.14    -0.216 OA
HETATM    6  C1' PAP A 125      38.207  -5.456  19.667  1.00 29.59     0.241 C 
ENDROOT
BRANCH   1   7
HETATM    7  C5' PAP A 125      37.342  -8.528  18.488  1.00 29.07     0.187 C 
BRANCH   7   8
HETATM    8  O5' PAP A 125      37.769  -8.854  19.796  1.00 30.13    -0.268 OA
BRANCH   8   9
HETATM    9  PA  PAP A 125      38.818 -10.073  20.053  1.00 31.22     0.419 P 
HETATM   10  O1A PAP A 125      39.067 -10.711  18.727  1.00 32.37    -0.624 OA
HETATM   11  O2A PAP A 125      39.982  -9.550  20.818  1.00 32.57    -0.624 OA
BRANCH   9  12
HETATM   12  O3A PAP A 125      37.906 -11.253  20.909  1.00 29.92    -0.173 OA
BRANCH  12  13
HETATM   13  PB  PAP A 125      38.188 -12.650  21.732  1.00 26.94     0.431 P 
HETATM   14  O1B PAP A 125      37.353 -13.669  21.066  1.00 24.20    -0.616 OA
HETATM   15  O2B PAP A 125      39.668 -12.853  21.576  1.00 26.86    -0.616 OA
HETATM   16  O3B PAP A 125      37.779 -12.361  23.127  1.00 28.16    -0.616 OA
ENDBRANCH  12  13
ENDBRANCH   9  12
ENDBRANCH   8   9
ENDBRANCH   7   8
ENDBRANCH   1   7
BRANCH   3  17
HETATM   17  O3' PAP A 125      37.271  -5.100  17.023  1.00 36.20    -0.261 OA
BRANCH  17  18
HETATM   18  P   PAP A 125      37.153  -4.819  15.344  1.00 39.68     0.423 P 
HETATM   19  O1  PAP A 125      35.903  -5.555  15.029  1.00 40.50    -0.617 OA
HETATM   20  O2  PAP A 125      37.050  -3.340  15.270  1.00 39.38    -0.617 OA
HETATM   21  O3  PAP A 125      38.417  -5.344  14.742  1.00 40.59    -0.617 OA
ENDBRANCH  17  18
ENDBRANCH   3  17
BRANCH   6  22
HETATM   22  N9  PAP A 125      38.866  -5.279  20.982  1.00 29.22    -0.270 N 
HETATM   23  C4  PAP A 125      38.523  -4.466  22.095  1.00 29.28     0.170 A 
HETATM   24  N3  PAP A 125      37.475  -3.584  22.260  1.00 29.66    -0.205 NA
HETATM   25  C5  PAP A 125      39.503  -4.725  23.047  1.00 29.93     0.155 A 
HETATM   26  C2  PAP A 125      37.536  -2.989  23.476  1.00 28.29     0.202 A 
HETATM   27  N1  PAP A 125      38.411  -3.130  24.483  1.00 27.66    -0.202 NA
HETATM   28  C6  PAP A 125      39.431  -4.014  24.321  1.00 28.82     0.206 A 
HETATM   29  N6  PAP A 125      40.283  -4.259  25.336  1.00 26.39    -0.125 N 
HETATM   30  N7  PAP A 125      40.438  -5.679  22.531  1.00 30.19    -0.219 NA
HETATM   31  C8  PAP A 125      40.007  -5.953  21.336  1.00 28.80     0.182 A 
ENDBRANCH   6  22
TORSDOF 8
ENDMDL
