REMARK  5 active torsions:
REMARK  status: ('A' for Active; 'I' for Inactive)
REMARK    1  A    between atoms: S_2  and  C_8 
REMARK    2  A    between atoms: S_2  and  C_9 
REMARK    3  A    between atoms: O_5  and  C_14 
REMARK    4  A    between atoms: O_5  and  C_15 
REMARK    5  A    between atoms: C_6  and  C_8 
ROOT
HETATM    1  C   UNL     1       1.355   0.918   0.145  1.00  0.00     0.059 A 
HETATM    2  C   UNL     1       0.487   0.334   1.068  1.00  0.00     0.026 A 
HETATM    3  C   UNL     1       0.844   1.632  -0.938  1.00  0.00     0.026 A 
HETATM    4  C   UNL     1      -0.892   0.464   0.907  1.00  0.00     0.039 A 
HETATM    5  C   UNL     1      -0.536   1.762  -1.099  1.00  0.00     0.039 A 
HETATM    6  C   UNL     1      -1.413   1.178  -0.178  1.00  0.00     0.076 A 
ENDROOT
BRANCH   1   7
HETATM    7  S   UNL     1       3.082   0.756   0.347  1.00  0.00     0.176 S 
HETATM    8  O   UNL     1       3.720   1.875  -0.333  1.00  0.00    -0.223 OA
HETATM    9  O   UNL     1       3.371   0.504   1.752  1.00  0.00    -0.223 OA
BRANCH   7  10
HETATM   10  C   UNL     1       3.493  -0.729  -0.541  1.00  0.00     0.161 C 
BRANCH  10  11
HETATM   11  C   UNL     1       4.963  -0.888  -0.383  1.00  0.00     0.071 A 
HETATM   12  S   UNL     1       5.479  -2.080   0.749  1.00  0.00    -0.161 SA
HETATM   13  C   UNL     1       5.639  -2.082  -0.969  1.00  0.00     0.090 A 
ENDBRANCH  10  11
ENDBRANCH   7  10
ENDBRANCH   1   7
BRANCH   6  14
HETATM   14  O   UNL     1      -2.750   1.304  -0.333  1.00  0.00    -0.311 OA
BRANCH  14  15
HETATM   15  C   UNL     1      -3.601   0.253  -0.184  1.00  0.00     0.076 A 
HETATM   16  C   UNL     1      -3.296  -0.979  -0.763  1.00  0.00     0.037 A 
HETATM   17  C   UNL     1      -4.169  -2.057  -0.612  1.00  0.00     0.003 A 
HETATM   18  C   UNL     1      -5.347  -1.902   0.119  1.00  0.00     0.000 A 
HETATM   19  C   UNL     1      -5.652  -0.670   0.699  1.00  0.00     0.003 A 
HETATM   20  C   UNL     1      -4.779   0.407   0.547  1.00  0.00     0.037 A 
ENDBRANCH  14  15
ENDBRANCH   6  14
TORSDOF 5
