@<TRIPOS>MOLECULE
PYC
 40 42 0 0 0
SMALL
GASTEIGER

@<TRIPOS>ATOM
      1 O          10.7370   10.8960  -10.7870 O.3     1  PYC       -0.3902
      2 N           8.9150    7.8300   -7.4470 N.3     1  PYC       -0.2964
      3 N          10.9540    9.6770   -8.3030 N.3     1  PYC       -0.3054
      4 C           8.8180    8.4540   -8.7000 C.3     1  PYC        0.0282
      5 C          10.0330    8.1220   -6.6080 C.3     1  PYC        0.0258
      6 C           9.9370    9.4090   -9.0650 C.3     1  PYC        0.0496
      7 C          11.0200    9.0350   -7.0570 C.3     1  PYC        0.0236
      8 C           7.9360    6.8810   -6.9210 C.3     1  PYC       -0.0121
      9 C           7.8440    8.3000   -9.6150 C.3     1  PYC       -0.0357
     10 C          10.2140    7.5450   -5.3350 C.3     1  PYC       -0.0359
     11 C           9.8730   10.1120  -10.4200 C.3     1  PYC        0.0720
     12 C          12.1260    9.3370   -6.2510 C.3     1  PYC       -0.0361
     13 C           7.7900    8.9650  -10.8900 C.3     1  PYC       -0.0492
     14 C          11.3240    7.8550   -4.5410 C.3     1  PYC       -0.0515
     15 C           8.7270    9.8210  -11.2980 C.3     1  PYC       -0.0253
     16 C          12.2800    8.7510   -4.9980 C.3     1  PYC       -0.0515
     17 H          11.4013   10.9737  -10.1123 H       1  PYC        0.2098
     18 H          11.8052    9.4244   -8.8251 H       1  PYC        0.1226
     19 H           8.0283    7.7825   -8.4347 H       1  PYC        0.0479
     20 H           9.1658    7.4956   -6.5865 H       1  PYC        0.0478
     21 H           9.8923    8.8499   -8.1538 H       1  PYC        0.0501
     22 H          10.1173    8.4657   -7.1340 H       1  PYC        0.0476
     23 H           7.1513    6.7452   -7.6356 H       1  PYC        0.0391
     24 H           8.4142    5.9423   -6.7336 H       1  PYC        0.0391
     25 H           7.5258    7.2607   -6.0086 H       1  PYC        0.0391
     26 H           7.8276    7.2539   -9.8392 H       1  PYC        0.0281
     27 H           7.0328    8.7847   -9.1130 H       1  PYC        0.0281
     28 H           9.3499    7.8056   -4.7602 H       1  PYC        0.0281
     29 H          10.3822    6.5152   -5.5720 H       1  PYC        0.0281
     30 H          10.7734   10.6159  -10.1368 H       1  PYC        0.0609
     31 H          12.9956    9.0770   -6.8176 H       1  PYC        0.0281
     32 H          11.9687   10.3679   -6.0114 H       1  PYC        0.0281
     33 H           7.7566    8.1898  -11.6267 H       1  PYC        0.0267
     34 H           6.9475    9.6119  -10.7610 H       1  PYC        0.0267
     35 H          10.9446    8.2512   -3.6223 H       1  PYC        0.0266
     36 H          11.8586    6.9292   -4.4966 H       1  PYC        0.0266
     37 H           8.2362   10.7525  -11.4887 H       1  PYC        0.0291
     38 H           9.1713    9.3273  -12.1369 H       1  PYC        0.0291
     39 H          13.2143    8.2297   -5.0108 H       1  PYC        0.0266
     40 H          12.1947    9.5762   -4.3222 H       1  PYC        0.0266
@<TRIPOS>BOND
     1     1    11    1
     2     1    17    1
     3     2     4    1
     4     2     5    1
     5     2     8    1
     6     3     6    1
     7     3     7    1
     8     3    18    1
     9     4     6    1
    10     4     9    1
    11     4    19    1
    12     5     7    1
    13     5    10    1
    14     5    20    1
    15     6    11    1
    16     6    21    1
    17     7    12    1
    18     7    22    1
    19     8    23    1
    20     8    24    1
    21     8    25    1
    22     9    13    1
    23     9    26    1
    24     9    27    1
    25    10    14    1
    26    10    28    1
    27    10    29    1
    28    11    15    1
    29    11    30    1
    30    12    16    1
    31    12    31    1
    32    12    32    1
    33    13    15    1
    34    13    33    1
    35    13    34    1
    36    14    16    1
    37    14    35    1
    38    14    36    1
    39    15    37    1
    40    15    38    1
    41    16    39    1
    42    16    40    1


