@<TRIPOS>MOLECULE
*****
   59    61     1     0     0
SMALL
bcc


@<TRIPOS>ATOM
      1 C1          11.6360   -47.3040   -16.8390 c1         1 STM      -0.223300
      2 N1           7.8480   -43.0380    -9.7590 nu         1 STM      -0.636400
      3 O1           9.5060   -46.6640   -15.9110 os         1 STM      -0.153200
      4 C2          10.1940   -47.7670   -16.5500 c2         1 STM       0.002200
      5 N2           9.7700   -41.5390    -9.9880 n8         1 STM      -0.828100
      6 O2           8.0740   -46.8680   -14.0310 os         1 STM      -0.244200
      7 C3          10.1110   -48.9240   -15.5270 c5         1 STM      -0.076700
      8 N3           9.6570   -43.0530    -8.1200 n8         1 STM      -0.828100
      9 O3           8.2660   -47.7130   -11.2960 oh         1 STM      -0.508100
     10 C4          10.0690   -48.2040   -14.1680 c2         1 STM       0.075900
     11 N4           7.4290   -44.1120   -14.6190 nu         1 STM      -0.580400
     12 O4           8.7610   -45.8020    -9.2920 oh         1 STM      -0.500100
     13 C5           9.4440   -46.8370   -14.4740 c2         1 STM       0.199200
     14 N5           5.6690   -44.4480   -16.1990 n8         1 STM      -0.840600
     15 O5           7.9610   -42.1980   -12.5460 oh         1 STM      -0.488100
     16 C6           7.7570   -45.9680   -12.9400 ca         1 STM       0.088100
     17 N6           5.1500   -43.5000   -14.0670 n8         1 STM      -0.840600
     18 O6          11.4110   -47.9550   -13.6720 os         1 STM      -0.360400
     19 C7           8.0440   -44.5000   -13.3260 ca         1 STM       0.058600
     20 N7          11.9660   -50.1900   -12.1340 nu         1 STM      -0.626200
     21 O7          12.6630   -47.0170   -11.8660 os         1 STM      -0.398800
     22 C8           7.6610   -43.5470   -12.1760 ca         1 STM       0.147100
     23 O8          11.6010   -44.6120   -10.0480 oh         1 STM      -0.484600
     24 C9           8.3480   -43.9240   -10.8380 ca         1 STM       0.003600
     25 O9          12.3950   -47.4910    -8.1810 oh         1 STM      -0.488100
     26 C10          8.0890   -45.4130   -10.4940 ca         1 STM       0.120100
     27 O10         10.6490   -49.5960    -9.2340 oh         1 STM      -0.498100
     28 C11          8.5110   -46.3460   -11.6480 ca         1 STM       0.031100
     29 O11          7.7290   -49.1450   -16.3140 oh         1 STM      -0.462600
     30 C12          8.8720   -42.2360    -9.0540 cz         1 STM       0.404000
     31 O12         11.2410   -49.8020   -15.5980 oh         1 STM      -0.522800
     32 C13          6.0060   -44.4640   -14.7720 cz         1 STM       0.401000
     33 C14         11.4440   -47.6970   -12.2500 c2         1 STM       0.548000
     34 C15         11.3040   -49.0360   -11.4830 c2         1 STM       0.022300
     35 C16         11.6670   -48.9370    -9.9890 c2         1 STM       0.030100
     36 C17         11.8640   -47.4840    -9.5110 c2         1 STM       0.025800
     37 C18         12.8360   -46.7200   -10.4460 c2         1 STM       0.312700
     38 C19         12.8990   -45.1970   -10.1840 c1         1 STM      -0.125400
     39 C20         13.4370   -50.0960   -12.1240 c1         1 STM       0.216800
     40 C21          8.8520   -49.8100   -15.7240 c1         1 STM       0.107500
     41 H1           7.2880   -43.5690    -9.0960 hn         1 STM       0.419800
     42 H3           7.5850   -43.1230   -14.8030 hn         1 STM       0.424800
     43 H6           7.7970   -49.2090   -17.2860 ho         1 STM       0.433000
     44 H13          8.6690   -47.8740   -10.4230 ho         1 STM       0.450000
     45 H14          8.1110   -46.2260    -8.7080 ho         1 STM       0.452000
     46 H15         10.3830   -40.9030    -9.4820 hn         1 STM       0.386800
     47 H16          9.2300   -40.9820   -10.6460 hn         1 STM       0.386800
     48 H17         10.2820   -42.4590    -7.5780 hn         1 STM       0.386800
     49 H18          9.0400   -43.5220    -7.4600 hn         1 STM       0.386800
     50 H19          7.3780   -41.6210   -12.0260 ho         1 STM       0.459000
     51 H20          4.7160   -44.7780   -16.3350 hn         1 STM       0.401550
     52 H21          6.2800   -45.0930   -16.6980 hn         1 STM       0.401550
     53 H22          4.1710   -43.7450   -14.1980 hn         1 STM       0.401550
     54 H23          5.2820   -42.5700   -14.4600 hn         1 STM       0.401550
     55 H31         11.5700   -44.1020    -9.2070 ho         1 STM       0.426000
     56 H32         11.8270   -48.0580    -7.6280 ho         1 STM       0.448000
     57 H33         10.4120   -50.4040    -9.7310 ho         1 STM       0.434000
     58 H34         11.6390   -50.2640   -13.0960 hn         1 STM       0.395800
     59 H39         11.9550   -49.3810   -15.0870 ho         1 STM       0.423000
@<TRIPOS>BOND
     1     1     4 1   
     2    43    29 1   
     3    52    14 1   
     4    51    14 1   
     5     4     7 1   
     6     4     3 1   
     7    14    32 1   
     8    29    40 1   
     9    31     7 1   
    10    31    59 1   
    11    40     7 1   
    12     7    10 1   
    13     3    13 1   
    14    54    17 1   
    15    32    11 1   
    16    32    17 1   
    17    42    11 1   
    18    11    19 1   
    19    17    53 1   
    20    13    10 1   
    21    13     6 1   
    22    10    18 1   
    23     6    16 1   
    24    18    33 1   
    25    19    16 ar  
    26    19    22 ar  
    27    58    20 1   
    28    16    28 ar  
    29    15    22 1   
    30    15    50 1   
    31    33    21 1   
    32    33    34 1   
    33    22    24 ar  
    34    20    39 1   
    35    20    34 1   
    36    21    37 1   
    37    28     9 1   
    38    28    26 ar  
    39    34    35 1   
    40     9    44 1   
    41    24    26 ar  
    42    24     2 1   
    43    37    38 1   
    44    37    36 1   
    45    47     5 1   
    46    38    23 1   
    47    26    12 1   
    48     5    46 1   
    49     5    30 1   
    50    35    36 1   
    51    35    27 1   
    52    57    27 1   
    53     2    30 1   
    54     2    41 1   
    55    36    25 1   
    56    23    55 1   
    57    12    45 1   
    58    30     8 1   
    59    25    56 1   
    60     8    48 1   
    61     8    49 1   
@<TRIPOS>SUBSTRUCTURE
     1 STM         1 TEMP              0 ****  ****    0 ROOT
