@<TRIPOS>MOLECULE
*****
 41 42 0 0 0
SMALL
GASTEIGER

@<TRIPOS>ATOM
      1  C1       -26.9500   -7.2293   -6.2194 C.3     1  NDX1       -0.0523
      2  N1       -29.1491   -6.4456   -7.2381 N.3     1  NDX1       -0.2866
      3  O1       -30.9665   -3.1429   -9.0638 O.3     1  NDX1       -0.3909
      4  C2       -28.4282   -7.5460   -6.5352 C.3     1  NDX1       -0.0025
      5  N2       -28.3790   -7.2753   -9.4046 N.3     1  NDX1       -0.2983
      6  O2       -29.2135   -2.2811   -6.0449 O.3     1  NDX1       -0.3668
      7  C3       -29.3543   -5.2611   -6.3674 C.3     1  NDX1        0.0101
      8  O3       -31.5300   -2.1344   -6.3863 O.3     1  NDX1       -0.3668
      9  C4       -30.3530   -4.2498   -6.9805 C.3     1  NDX1        0.0488
     10  C5       -29.9123   -3.8593   -8.4173 C.3     1  NDX1        0.0693
     11  C6       -29.5630   -5.0880   -9.2951 C.3     1  NDX1        0.0144
     12  C7       -28.6006   -6.0625   -8.5691 C.3     1  NDX1        0.0666
     13  C8       -28.2730   -7.0534  -10.8705 C.3     1  NDX1        0.0062
     14  C9       -27.8793   -5.5970  -11.1955 C.3     1  NDX1       -0.0373
     15  C10      -28.9421   -4.6183  -10.6453 C.3     1  NDX1       -0.0438
     16  C11      -27.2654   -8.0487  -11.4767 C.3     1  NDX1       -0.0496
     17  C12      -30.4497   -3.0138   -6.0369 C.3     1  NDX1        0.1595
     18  H01      -26.3829   -7.0372   -7.1325 H       1  NDX1        0.0242
     19  H02      -26.8624   -6.3619   -5.5624 H       1  NDX1        0.0242
     20  H03      -26.4911   -8.0811   -5.7131 H       1  NDX1        0.0242
     21  H04      -30.6590   -2.9550   -9.9640 H       1  NDX1        0.2098
     22  H05      -28.9467   -7.7652   -5.5976 H       1  NDX1        0.0424
     23  H06      -28.4698   -8.4550   -7.1414 H       1  NDX1        0.0424
     24  H07      -27.5604   -7.7718   -9.0591 H       1  NDX1        0.1237
     25  H08      -29.2140   -1.5950   -5.3530 H       1  NDX1        0.2125
     26  H09      -28.3938   -4.7652   -6.2018 H       1  NDX1        0.0432
     27  H10      -29.7438   -5.5870   -5.3988 H       1  NDX1        0.0432
     28  H11      -32.0120   -2.4720   -7.1750 H       1  NDX1        0.2125
     29  H12      -31.3324   -4.7336   -7.0307 H       1  NDX1        0.0387
     30  H13      -29.0272   -3.2206   -8.3540 H       1  NDX1        0.0602
     31  H14      -30.4863   -5.6356   -9.5084 H       1  NDX1        0.0354
     32  H15      -27.6293   -5.5662   -8.4188 H       1  NDX1        0.0634
     33  H16      -29.2543   -7.2411  -11.3158 H       1  NDX1        0.0458
     34  H17      -27.7793   -5.4573  -12.2748 H       1  NDX1        0.0280
     35  H18      -26.9067   -5.3722  -10.7486 H       1  NDX1        0.0280
     36  H19      -28.4706   -3.6383  -10.5356 H       1  NDX1        0.0270
     37  H20      -29.7445   -4.5030  -11.3781 H       1  NDX1        0.0270
     38  H21      -26.2688   -7.8979  -11.0546 H       1  NDX1        0.0245
     39  H22      -27.5744   -9.0767  -11.2742 H       1  NDX1        0.0245
     40  H23      -27.2037   -7.9196  -12.5598 H       1  NDX1        0.0245
     41  H24      -30.6315   -3.3424   -5.0021 H       1  NDX1        0.0909
@<TRIPOS>BOND
     1    40    16    1
     2    34    14    1
     3    33    13    1
     4    16    39    1
     5    16    13    1
     6    16    38    1
     7    37    15    1
     8    14    13    1
     9    14    15    1
    10    14    35    1
    11    13     5    1
    12    15    36    1
    13    15    11    1
    14    21     3    1
    15    31    11    1
    16     5    24    1
    17     5    12    1
    18    11    12    1
    19    11    10    1
    20     3    10    1
    21    12    32    1
    22    12     2    1
    23    10    30    1
    24    10     9    1
    25    23     4    1
    26     2     4    1
    27     2     7    1
    28    29     9    1
    29    28     8    1
    30     9     7    1
    31     9    17    1
    32    18     1    1
    33     4     1    1
    34     4    22    1
    35     7    26    1
    36     7    27    1
    37     8    17    1
    38     6    17    1
    39     6    25    1
    40     1    20    1
    41     1    19    1
    42    17    41    1
