MODEL 1
REMARK VINA RESULT:    -6.678      0.000      0.000
REMARK INTER + INTRA:          -8.620
REMARK INTER:                  -8.044
REMARK INTRA:                  -0.575
REMARK UNBOUND:                -0.575
REMARK  5 active torsions:
REMARK  status: ('A' for Active; 'I' for Inactive)
REMARK    1  A    between atoms: C2_2  and  N1_3 
REMARK    2  A    between atoms: C4_5  and  C12_15 
REMARK    3  A    between atoms: C5_6  and  O1_7 
REMARK    4  A    between atoms: C12_15  and  O2_16 
REMARK    5  A    between atoms: C12_15  and  O3_17 
ROOT
HETATM    1  N1  NDX     1      15.829  16.207 -13.490  1.00  0.00     0.122 N 
HETATM    2  C3  NDX     1      14.781  16.340 -14.522  1.00  0.00     0.287 C 
HETATM    3  C4  NDX     1      14.094  14.984 -14.759  1.00  0.00     0.098 C 
HETATM    4  C5  NDX     1      15.151  13.952 -15.223  1.00  0.00     0.136 C 
HETATM    5  C6  NDX     1      16.326  13.873 -14.217  1.00  0.00     0.079 C 
HETATM    6  C7  NDX     1      16.908  15.280 -13.919  1.00  0.00     0.460 C 
HETATM    7  N2  NDX     1      17.947  15.183 -12.869  1.00  0.00     0.122 N 
HETATM    8  C8  NDX     1      18.890  14.049 -13.006  1.00  0.00     0.219 C 
HETATM    9  C9  NDX     1      18.847  13.392 -14.397  1.00  0.00     0.036 C 
HETATM   10  C10 NDX     1      17.428  12.909 -14.729  1.00  0.00     0.013 C 
HETATM   11  C11 NDX     1      20.304  14.540 -12.693  1.00  0.00     0.042 C 
HETATM   12  H7  NDX     1      17.473  15.091 -11.938  1.00  0.00     0.319 HD
ENDROOT
BRANCH   3  13
HETATM   13  C12 NDX     1      12.910  15.139 -15.751  1.00  0.00     0.262 C 
BRANCH  13  14
HETATM   14  O2  NDX     1      13.317  14.892 -17.074  1.00  0.00    -0.371 OA
HETATM   15  H12 NDX     1      13.205  15.736 -17.585  1.00  0.00     0.212 HD
ENDBRANCH  13  14
BRANCH  13  16
HETATM   16  O3  NDX     1      11.842  14.290 -15.406  1.00  0.00    -0.371 OA
HETATM   17  H12 NDX     1      11.155  14.857 -14.967  1.00  0.00     0.212 HD
ENDBRANCH  13  16
ENDBRANCH   3  13
BRANCH   4  18
HETATM   18  O1  NDX     1      14.575  12.681 -15.406  1.00  0.00    -0.394 OA
HETATM   19  H4  NDX     1      15.171  12.167 -16.011  1.00  0.00     0.210 HD
ENDBRANCH   4  18
BRANCH   1  20
HETATM   20  C2  NDX     1      16.314  17.533 -13.029  1.00  0.00     0.271 C 
HETATM   21  C1  NDX     1      15.872  17.916 -11.610  1.00  0.00     0.037 C 
ENDBRANCH   1  20
TORSDOF 5
ENDMDL
