MODEL 1
REMARK VINA RESULT:    -6.166      0.000      0.000
REMARK INTER + INTRA:          -9.489
REMARK INTER:                  -8.689
REMARK INTRA:                  -0.800
REMARK UNBOUND:                -0.800
REMARK  9 active torsions:
REMARK  status: ('A' for Active; 'I' for Inactive)
REMARK    1  A    between atoms: C3_3  and  C15_20 
REMARK    2  A    between atoms: C5_7  and  N2_10 
REMARK    3  A    between atoms: C6_8  and  O1_9 
REMARK    4  A    between atoms: N2_10  and  C7_11 
REMARK    5  A    between atoms: C7_11  and  O2_12 
REMARK    6  A    between atoms: C7_11  and  C8_13 
REMARK    7  A    between atoms: C8_13  and  C9_14 
REMARK    8  A    between atoms: C15_20  and  O3_21 
REMARK    9  A    between atoms: C15_20  and  O4_22 
ROOT
HETATM    1  C1  PEN     1      16.606  21.566 -11.404  1.00  0.00     0.029 C 
HETATM    2  C2  PEN     1      15.593  20.941 -12.390  1.00  0.00     0.039 C 
HETATM    3  C3  PEN     1      14.842  19.648 -11.888  1.00  0.00     0.299 C 
HETATM    4  N1  PEN     1      14.940  18.547 -12.872  1.00  0.00     0.146 N 
HETATM    5  C4  PEN     1      15.870  18.832 -13.965  1.00  0.00     0.326 A 
HETATM    6  S1  PEN     1      16.524  20.527 -13.894  1.00  0.00    -0.119 SA
HETATM    7  C5  PEN     1      14.812  18.576 -15.045  1.00  0.00     0.325 A 
HETATM    8  C6  PEN     1      13.855  18.380 -13.864  1.00  0.00     0.395 A 
HETATM    9  C16 PEN     1      14.572  22.040 -12.749  1.00  0.00     0.029 C 
ENDROOT
BRANCH   7  10
HETATM   10  N2  PEN     1      14.537  19.723 -15.937  1.00  0.00     0.124 N 
HETATM   11  H7  PEN     1      14.012  20.472 -15.434  1.00  0.00     0.320 HD
BRANCH  10  12
HETATM   12  C7  PEN     1      13.786  19.307 -17.135  1.00  0.00     0.354 C 
BRANCH  12  13
HETATM   13  O2  PEN     1      12.408  19.471 -16.910  1.00  0.00    -0.368 OA
HETATM   14  H4  PEN     1      12.102  18.667 -16.414  1.00  0.00     0.212 HD
ENDBRANCH  12  13
BRANCH  12  15
HETATM   15  C8  PEN     1      14.202  20.186 -18.328  1.00  0.00     0.068 C 
BRANCH  15  16
HETATM   16  C9  PEN     1      14.146  21.701 -18.021  1.00  0.00    -0.010 C 
HETATM   17  C10 PEN     1      15.493  22.367 -18.362  1.00  0.00     0.005 C 
HETATM   18  C11 PEN     1      15.519  23.852 -17.947  1.00  0.00     0.000 C 
HETATM   19  C12 PEN     1      14.135  24.528 -17.991  1.00  0.00     0.000 C 
HETATM   20  C13 PEN     1      13.234  23.896 -19.055  1.00  0.00     0.000 C 
HETATM   21  C14 PEN     1      12.980  22.401 -18.773  1.00  0.00     0.005 C 
ENDBRANCH  15  16
ENDBRANCH  12  15
ENDBRANCH  10  12
ENDBRANCH   7  10
BRANCH   8  22
HETATM   22  O1  PEN     1      12.849  19.358 -13.776  1.00  0.00    -0.366 OA
HETATM   23  H2  PEN     1      12.779  19.597 -12.816  1.00  0.00     0.212 HD
ENDBRANCH   8  22
BRANCH   3  24
HETATM   24  C15 PEN     1      15.284  19.057 -10.528  1.00  0.00     0.289 C 
BRANCH  24  25
HETATM   25  O3  PEN     1      14.325  19.319  -9.536  1.00  0.00    -0.369 OA
HETATM   26  H12 PEN     1      14.014  18.439  -9.201  1.00  0.00     0.212 HD
ENDBRANCH  24  25
BRANCH  24  27
HETATM   27  O4  PEN     1      15.522  17.678 -10.635  1.00  0.00    -0.369 OA
HETATM   28  H15 PEN     1      16.498  17.567 -10.782  1.00  0.00     0.212 HD
ENDBRANCH  24  27
ENDBRANCH   3  24
TORSDOF 9
ENDMDL
