MODEL 1
REMARK VINA RESULT:    -7.676      0.000      0.000
REMARK INTER + INTRA:         -14.706
REMARK INTER:                 -12.612
REMARK INTRA:                  -2.093
REMARK UNBOUND:                -2.093
REMARK  16 active torsions:
REMARK  status: ('A' for Active; 'I' for Inactive)
REMARK    1  A    between atoms: C2_2  and  N5_32 
REMARK    2  A    between atoms: C3_3  and  O7_21 
REMARK    3  A    between atoms: C4_4  and  O6_20 
REMARK    4  A    between atoms: C5_5  and  O1_8 
REMARK    5  A    between atoms: C6_6  and  N1_7 
REMARK    6  A    between atoms: O1_8  and  C7_9 
REMARK    7  A    between atoms: C8_10  and  O5_19 
REMARK    8  A    between atoms: C9_11  and  N2_18 
REMARK    9  A    between atoms: C10_12  and  O4_17 
REMARK   10  A    between atoms: C11_13  and  C12_15 
REMARK   11  A    between atoms: C12_15  and  O3_16 
REMARK   12  A    between atoms: O7_21  and  C13_22 
REMARK   13  A    between atoms: C14_23  and  N4_31 
REMARK   14  A    between atoms: C16_25  and  O9_30 
REMARK   15  A    between atoms: C17_26  and  C18_28 
REMARK   16  A    between atoms: C18_28  and  N3_29 
ROOT
HETATM    1  C1  TOB     1      15.046  12.622 -12.514  1.00  0.00     0.076 C 
HETATM    2  C2  TOB     1      14.584  12.550 -13.988  1.00  0.00     0.251 C 
HETATM    3  C3  TOB     1      15.091  13.738 -14.846  1.00  0.00     0.189 C 
HETATM    4  C4  TOB     1      16.603  13.996 -14.664  1.00  0.00     0.180 C 
HETATM    5  C5  TOB     1      17.004  14.178 -13.172  1.00  0.00     0.189 C 
HETATM    6  C6  TOB     1      16.528  13.009 -12.280  1.00  0.00     0.251 C 
ENDROOT
BRANCH   5   7
HETATM    7  O1  TOB     1      16.448  15.378 -12.651  1.00  0.00    -0.348 OA
BRANCH   7   8
HETATM    8  C7  TOB     1      16.999  15.746 -11.393  1.00  0.00     0.291 C 
HETATM    9  C8  TOB     1      16.252  16.996 -10.864  1.00  0.00     0.208 C 
HETATM   10  C9  TOB     1      17.093  17.771  -9.808  1.00  0.00     0.282 C 
HETATM   11  C10 TOB     1      18.182  16.864  -9.208  1.00  0.00     0.184 C 
HETATM   12  C11 TOB     1      19.064  16.301 -10.360  1.00  0.00     0.179 C 
HETATM   13  O2  TOB     1      18.371  16.040 -11.579  1.00  0.00    -0.349 OA
BRANCH   9  14
HETATM   14  O5  TOB     1      15.881  17.858 -11.913  1.00  0.00    -0.388 OA
HETATM   15  H21 TOB     1      15.129  17.430 -12.400  1.00  0.00     0.210 HD
ENDBRANCH   9  14
BRANCH  10  16
HETATM   16  N2  TOB     1      16.242  18.320  -8.749  1.00  0.00     0.088 N 
HETATM   17  H19 TOB     1      15.400  18.757  -9.191  1.00  0.00     0.313 HD
HETATM   18  H20 TOB     1      15.906  17.544  -8.134  1.00  0.00     0.313 HD
ENDBRANCH  10  16
BRANCH  11  19
HETATM   19  O4  TOB     1      18.990  17.596  -8.320  1.00  0.00    -0.391 OA
HETATM   20  H18 TOB     1      18.395  17.947  -7.608  1.00  0.00     0.210 HD
ENDBRANCH  11  19
BRANCH  12  21
HETATM   21  C12 TOB     1      19.884  15.073  -9.935  1.00  0.00     0.198 C 
BRANCH  21  22
HETATM   22  O3  TOB     1      19.976  14.977  -8.538  1.00  0.00    -0.398 OA
HETATM   23  H17 TOB     1      19.871  14.018  -8.304  1.00  0.00     0.209 HD
ENDBRANCH  21  22
ENDBRANCH  12  21
ENDBRANCH   7   8
ENDBRANCH   5   7
BRANCH   4  24
HETATM   24  O6  TOB     1      17.348  12.969 -15.264  1.00  0.00    -0.390 OA
HETATM   25  H22 TOB     1      16.821  12.132 -15.164  1.00  0.00     0.210 HD
ENDBRANCH   4  24
BRANCH   6  26
HETATM   26  N1  TOB     1      17.442  11.862 -12.348  1.00  0.00     0.085 N 
HETATM   27  H8  TOB     1      17.356  11.296 -11.472  1.00  0.00     0.313 HD
HETATM   28  H9  TOB     1      17.220  11.242 -13.152  1.00  0.00     0.313 HD
ENDBRANCH   6  26
BRANCH   3  29
HETATM   29  O7  TOB     1      14.399  14.933 -14.503  1.00  0.00    -0.349 OA
BRANCH  29  30
HETATM   30  C13 TOB     1      13.790  15.570 -15.618  1.00  0.00     0.293 C 
HETATM   31  C14 TOB     1      14.612  16.824 -16.008  1.00  0.00     0.275 C 
HETATM   32  C15 TOB     1      13.749  17.833 -16.807  1.00  0.00     0.074 C 
HETATM   33  C16 TOB     1      12.552  17.143 -17.473  1.00  0.00     0.151 C 
HETATM   34  C17 TOB     1      11.715  16.384 -16.397  1.00  0.00     0.181 C 
HETATM   35  O8  TOB     1      12.477  15.969 -15.265  1.00  0.00    -0.349 OA
BRANCH  31  36
HETATM   36  N4  TOB     1      15.187  17.464 -14.822  1.00  0.00     0.087 N 
HETATM   37  H34 TOB     1      15.374  18.470 -15.039  1.00  0.00     0.313 HD
HETATM   38  H35 TOB     1      14.496  17.429 -14.037  1.00  0.00     0.313 HD
ENDBRANCH  31  36
BRANCH  33  39
HETATM   39  O9  TOB     1      11.748  18.101 -18.113  1.00  0.00    -0.393 OA
HETATM   40  H33 TOB     1      12.149  18.988 -17.919  1.00  0.00     0.210 HD
ENDBRANCH  33  39
BRANCH  34  41
HETATM   41  C18 TOB     1      10.947  15.174 -16.976  1.00  0.00     0.301 C 
BRANCH  41  42
HETATM   42  N3  TOB     1      11.442  14.775 -18.294  1.00  0.00     0.080 N 
HETATM   43  H31 TOB     1      11.295  13.748 -18.424  1.00  0.00     0.312 HD
HETATM   44  H32 TOB     1      10.901  15.280 -19.032  1.00  0.00     0.312 HD
ENDBRANCH  41  42
ENDBRANCH  34  41
ENDBRANCH  29  30
ENDBRANCH   3  29
BRANCH   2  45
HETATM   45  N5  TOB     1      14.880  11.259 -14.620  1.00  0.00     0.085 N 
HETATM   46  H36 TOB     1      14.142  10.557 -14.417  1.00  0.00     0.313 HD
HETATM   47  H37 TOB     1      14.913  11.388 -15.658  1.00  0.00     0.313 HD
ENDBRANCH   2  45
TORSDOF 16
ENDMDL
