REMARK  2 active torsions:
REMARK  status: ('A' for Active; 'I' for Inactive)
REMARK    1  A    between atoms: N_1  and  N_2 
REMARK    2  A    between atoms: N_1  and  C_3 
ROOT
HETATM    1  C   UNL     1       0.559   0.264   0.051  1.00  0.00     0.042 A 
HETATM    2  C   UNL     1      -0.371   1.302  -0.002  1.00  0.00     0.030 A 
HETATM    3  C   UNL     1       0.125  -1.062   0.060  1.00  0.00     0.030 A 
HETATM    4  C   UNL     1      -1.735   1.015  -0.048  1.00  0.00     0.002 A 
HETATM    5  C   UNL     1      -1.239  -1.349   0.014  1.00  0.00     0.002 A 
HETATM    6  C   UNL     1      -2.169  -0.311  -0.040  1.00  0.00     0.000 A 
ENDROOT
BRANCH   1   7
HETATM    7  N   UNL     1       1.939   0.554   0.097  1.00  0.00    -0.324 N 
HETATM    8  H   UNL     1       2.220   1.526   0.032  1.00  0.00     0.180 HD
BRANCH   7   9
HETATM    9  N   UNL     1       2.890  -0.413  -0.131  1.00  0.00    -0.249 NA
HETATM   10  H   UNL     1       3.757  -0.129   0.323  1.00  0.00     0.143 HD
HETATM   11  H   UNL     1       3.092  -0.443  -1.129  1.00  0.00     0.143 HD
ENDBRANCH   7   9
ENDBRANCH   1   7
TORSDOF 2
