MODEL 1
REMARK VINA RESULT:    -7.364      0.000      0.000
REMARK INTER + INTRA:          -9.448
REMARK INTER:                  -8.870
REMARK INTRA:                  -0.577
REMARK UNBOUND:                -0.577
REMARK  5 active torsions:
REMARK  status: ('A' for Active; 'I' for Inactive)
REMARK    1  A    between atoms: C7_9  and  C18_24 
REMARK    2  A    between atoms: C8_10  and  O2_11 
REMARK    3  A    between atoms: C12_15  and  N2_16 
REMARK    4  A    between atoms: C18_24  and  O3_25 
REMARK    5  A    between atoms: C18_24  and  O4_26 
ROOT
HETATM    1  C1  LEV     1     -36.715  -6.361  43.423  1.00  0.00     0.045 C 
HETATM    2  C2  LEV     1     -37.475  -6.789  42.165  1.00  0.00     0.243 C 
HETATM    3  C3  LEV     1     -39.004  -6.767  42.423  1.00  0.00     0.203 C 
HETATM    4  O1  LEV     1     -39.524  -5.454  42.537  1.00  0.00    -0.379 OA
HETATM    5  C4  LEV     1     -39.091  -4.570  41.506  1.00  0.00     0.191 C 
HETATM    6  C5  LEV     1     -38.218  -5.232  40.405  1.00  0.00     0.261 C 
HETATM    7  N1  LEV     1     -37.068  -5.902  41.041  1.00  0.00     0.103 N 
HETATM    8  C6  LEV     1     -36.264  -6.626  40.035  1.00  0.00     0.285 C 
HETATM    9  C7  LEV     1     -35.692  -5.642  38.991  1.00  0.00     0.098 C 
HETATM   10  C8  LEV     1     -36.839  -4.838  38.324  1.00  0.00     0.135 C 
HETATM   11  C9  LEV     1     -37.730  -4.167  39.397  1.00  0.00     0.054 C 
HETATM   12  C10 LEV     1     -38.941  -3.449  38.756  1.00  0.00     0.049 C 
HETATM   13  C11 LEV     1     -39.841  -2.811  39.827  1.00  0.00     0.206 C 
HETATM   14  C12 LEV     1     -40.311  -3.884  40.851  1.00  0.00     0.287 C 
HETATM   15  F1  LEV     1     -39.124  -1.799  40.444  1.00  0.00    -0.247 F 
ENDROOT
BRANCH  14  16
HETATM   16  N2  LEV     1     -41.277  -3.396  41.875  1.00  0.00     0.102 N 
HETATM   17  C13 LEV     1     -40.683  -2.760  43.065  1.00  0.00     0.303 C 
HETATM   18  C14 LEV     1     -41.771  -2.546  44.127  1.00  0.00     0.302 C 
HETATM   19  N3  LEV     1     -42.909  -1.756  43.612  1.00  0.00     0.087 N 
HETATM   20  C15 LEV     1     -43.431  -2.295  42.338  1.00  0.00     0.302 C 
HETATM   21  C17 LEV     1     -42.608  -0.317  43.530  1.00  0.00     0.310 C 
HETATM   22  C16 LEV     1     -42.323  -2.530  41.301  1.00  0.00     0.303 C 
ENDBRANCH  14  16
BRANCH  10  23
HETATM   23  O2  LEV     1     -36.326  -3.875  37.434  1.00  0.00    -0.395 OA
HETATM   24  H6  LEV     1     -35.669  -4.330  36.845  1.00  0.00     0.210 HD
ENDBRANCH  10  23
BRANCH   9  25
HETATM   25  C18 LEV     1     -34.825  -6.374  37.937  1.00  0.00     0.262 C 
BRANCH  25  26
HETATM   26  O3  LEV     1     -33.834  -5.512  37.444  1.00  0.00    -0.371 OA
HETATM   27  H12 LEV     1     -33.132  -6.090  37.046  1.00  0.00     0.212 HD
ENDBRANCH  25  26
BRANCH  25  28
HETATM   28  O4  LEV     1     -35.624  -6.818  36.870  1.00  0.00    -0.371 OA
HETATM   29  H20 LEV     1     -35.923  -6.009  36.379  1.00  0.00     0.212 HD
ENDBRANCH  25  28
ENDBRANCH   9  25
TORSDOF 5
ENDMDL
