MODEL 1
REMARK VINA RESULT:    -6.133      0.000      0.000
REMARK INTER + INTRA:          -7.786
REMARK INTER:                  -7.388
REMARK INTRA:                  -0.398
REMARK UNBOUND:                -0.398
REMARK  5 active torsions:
REMARK  status: ('A' for Active; 'I' for Inactive)
REMARK    1  A    between atoms: C2_2  and  N1_3 
REMARK    2  A    between atoms: C4_5  and  C12_15 
REMARK    3  A    between atoms: C5_6  and  O1_7 
REMARK    4  A    between atoms: C12_15  and  O2_16 
REMARK    5  A    between atoms: C12_15  and  O3_17 
ROOT
HETATM    1  N1  NDX     1     -24.041   2.178  46.159  1.00  0.00     0.122 N 
HETATM    2  C3  NDX     1     -25.116   1.971  45.168  1.00  0.00     0.287 C 
HETATM    3  C4  NDX     1     -25.188   3.170  44.206  1.00  0.00     0.098 C 
HETATM    4  C5  NDX     1     -25.470   4.458  45.019  1.00  0.00     0.136 C 
HETATM    5  C6  NDX     1     -24.424   4.642  46.145  1.00  0.00     0.079 C 
HETATM    6  C7  NDX     1     -24.301   3.364  47.015  1.00  0.00     0.460 C 
HETATM    7  N2  NDX     1     -23.212   3.529  48.004  1.00  0.00     0.122 N 
HETATM    8  C8  NDX     1     -23.161   4.846  48.682  1.00  0.00     0.219 C 
HETATM    9  C9  NDX     1     -24.449   5.668  48.505  1.00  0.00     0.036 C 
HETATM   10  C10 NDX     1     -24.760   5.881  47.016  1.00  0.00     0.013 C 
HETATM   11  C11 NDX     1     -22.870   4.627  50.167  1.00  0.00     0.042 C 
HETATM   12  H7  NDX     1     -22.294   3.386  47.519  1.00  0.00     0.319 HD
ENDROOT
BRANCH   3  13
HETATM   13  C12 NDX     1     -26.232   2.909  43.087  1.00  0.00     0.262 C 
BRANCH  13  14
HETATM   14  O2  NDX     1     -25.965   3.689  41.948  1.00  0.00    -0.371 OA
HETATM   15  H12 NDX     1     -25.312   4.389  42.209  1.00  0.00     0.212 HD
ENDBRANCH  13  14
BRANCH  13  16
HETATM   16  O3  NDX     1     -26.279   1.546  42.742  1.00  0.00    -0.371 OA
HETATM   17  H12 NDX     1     -26.461   1.503  41.767  1.00  0.00     0.212 HD
ENDBRANCH  13  16
ENDBRANCH   3  13
BRANCH   4  18
HETATM   18  O1  NDX     1     -25.497   5.590  44.184  1.00  0.00    -0.394 OA
HETATM   19  H4  NDX     1     -24.606   6.026  44.242  1.00  0.00     0.210 HD
ENDBRANCH   4  18
BRANCH   1  20
HETATM   20  C2  NDX     1     -23.749   0.933  46.916  1.00  0.00     0.271 C 
HETATM   21  C1  NDX     1     -24.900   0.442  47.805  1.00  0.00     0.037 C 
ENDBRANCH   1  20
TORSDOF 5
ENDMDL
