MODEL 1
REMARK VINA RESULT:    -6.558      0.000      0.000
REMARK INTER + INTRA:         -10.042
REMARK INTER:                  -9.241
REMARK INTRA:                  -0.801
REMARK UNBOUND:                -0.801
REMARK  9 active torsions:
REMARK  status: ('A' for Active; 'I' for Inactive)
REMARK    1  A    between atoms: C3_3  and  C15_20 
REMARK    2  A    between atoms: C5_7  and  N2_10 
REMARK    3  A    between atoms: C6_8  and  O1_9 
REMARK    4  A    between atoms: N2_10  and  C7_11 
REMARK    5  A    between atoms: C7_11  and  O2_12 
REMARK    6  A    between atoms: C7_11  and  C8_13 
REMARK    7  A    between atoms: C8_13  and  C9_14 
REMARK    8  A    between atoms: C15_20  and  O3_21 
REMARK    9  A    between atoms: C15_20  and  O4_22 
ROOT
HETATM    1  C1  PEN     1     -40.920  -2.059  40.237  1.00  0.00     0.029 C 
HETATM    2  C2  PEN     1     -40.941  -2.107  41.782  1.00  0.00     0.039 C 
HETATM    3  C3  PEN     1     -41.803  -3.259  42.429  1.00  0.00     0.299 C 
HETATM    4  N1  PEN     1     -42.743  -2.729  43.442  1.00  0.00     0.146 N 
HETATM    5  C4  PEN     1     -42.808  -1.268  43.460  1.00  0.00     0.326 A 
HETATM    6  S1  PEN     1     -41.594  -0.507  42.340  1.00  0.00    -0.119 SA
HETATM    7  C5  PEN     1     -42.472  -1.187  44.954  1.00  0.00     0.325 A 
HETATM    8  C6  PEN     1     -42.324  -2.709  44.861  1.00  0.00     0.395 A 
HETATM    9  C16 PEN     1     -39.476  -2.215  42.253  1.00  0.00     0.029 C 
ENDROOT
BRANCH   7  10
HETATM   10  N2  PEN     1     -41.250  -0.420  45.280  1.00  0.00     0.124 N 
HETATM   11  H7  PEN     1     -40.401  -1.024  45.218  1.00  0.00     0.320 HD
BRANCH  10  12
HETATM   12  C7  PEN     1     -41.334   0.183  46.622  1.00  0.00     0.354 C 
BRANCH  12  13
HETATM   13  O2  PEN     1     -40.156  -0.090  47.338  1.00  0.00    -0.368 OA
HETATM   14  H4  PEN     1     -40.276  -0.983  47.757  1.00  0.00     0.212 HD
ENDBRANCH  12  13
BRANCH  12  15
HETATM   15  C8  PEN     1     -41.489   1.709  46.487  1.00  0.00     0.068 C 
BRANCH  15  16
HETATM   16  C9  PEN     1     -40.897   2.269  45.172  1.00  0.00    -0.010 C 
HETATM   17  C10 PEN     1     -41.802   3.382  44.610  1.00  0.00     0.005 C 
HETATM   18  C11 PEN     1     -41.314   3.876  43.232  1.00  0.00     0.000 C 
HETATM   19  C12 PEN     1     -39.788   3.762  43.044  1.00  0.00     0.000 C 
HETATM   20  C13 PEN     1     -39.045   3.898  44.375  1.00  0.00     0.000 C 
HETATM   21  C14 PEN     1     -39.445   2.787  45.367  1.00  0.00     0.005 C 
ENDBRANCH  15  16
ENDBRANCH  12  15
ENDBRANCH  10  12
ENDBRANCH   7  10
BRANCH   8  22
HETATM   22  O1  PEN     1     -41.012  -3.168  45.072  1.00  0.00    -0.366 OA
HETATM   23  H2  PEN     1     -40.953  -3.406  46.033  1.00  0.00     0.212 HD
ENDBRANCH   8  22
BRANCH   3  24
HETATM   24  C15 PEN     1     -42.644  -4.135  41.471  1.00  0.00     0.289 C 
BRANCH  24  25
HETATM   25  O3  PEN     1     -42.408  -5.499  41.707  1.00  0.00    -0.369 OA
HETATM   26  H12 PEN     1     -41.987  -5.566  42.603  1.00  0.00     0.212 HD
ENDBRANCH  24  25
BRANCH  24  27
HETATM   27  O4  PEN     1     -44.011  -3.841  41.593  1.00  0.00    -0.369 OA
HETATM   28  H15 PEN     1     -44.448  -4.655  41.958  1.00  0.00     0.212 HD
ENDBRANCH  24  27
ENDBRANCH   3  24
TORSDOF 9
ENDMDL
