@<TRIPOS>MOLECULE
pyc 
26 28 0 0 0
SMALL
USER_CHARGES
#CGenFF output mol2 file
@<TRIPOS>ATOM
1	H01     7.0150     6.9520    -7.5000	H	1	PYC1     0.0900
2	H02     8.3340     5.8690    -6.9950	H	1	PYC1     0.0900
3	H03     7.7270     7.1150    -5.8770	H	1	PYC1     0.0900
4	H04     7.0310     7.6170    -9.3710	H	1	PYC1     0.1500
5	H05     9.4720     6.8400    -4.9600	H	1	PYC1     0.1150
6	H06    12.8760    10.0410    -6.6110	H	1	PYC1     0.1150
7	H07     6.9470     8.7600   -11.5500	H	1	PYC1     0.1500
8	H08    11.4380     7.3910    -3.5610	H	1	PYC1     0.1150
9	H09     8.6460    10.3010   -12.2730	H	1	PYC1     0.1500
10	H10    13.1450     8.9940    -4.3810	H	1	PYC1     0.1150
11	O    10.7370    10.8960   -10.7870	O.2	1	PYC1    -0.4420
12	N1     8.9150     7.8300    -7.4470	N.pl3	1	PYC1    -0.7540
13	N2    10.9540     9.6770    -8.3030	N.2	1	PYC1    -0.3690
14	C1     8.8180     8.4540    -8.7000	C.2	1	PYC1     0.3130
15	C2    10.0330     8.1220    -6.6080	C.2	1	PYC1     0.2750
16	C3     9.9370     9.4090    -9.0650	C.2	1	PYC1     0.2790
17	C4    11.0200     9.0350    -7.0570	C.2	1	PYC1     0.3370
18	C5     7.9360     6.8810    -6.9210	C.3	1	PYC1    -0.0180
19	C6     7.8440     8.3000    -9.6150	C.2	1	PYC1    -0.2630
20	C7    10.2140     7.5450    -5.3350	C.2	1	PYC1    -0.1230
21	C8     9.8730    10.1120   -10.4200	C.2	1	PYC1     0.1650
22	C9    12.1260     9.3370    -6.2510	C.2	1	PYC1    -0.1480
23	C10     7.7900     8.9650   -10.8900	C.2	1	PYC1    -0.0270
24	C11    11.3240     7.8550    -4.5410	C.2	1	PYC1    -0.1260
25	C12     8.7270     9.8210   -11.2980	C.2	1	PYC1    -0.1750
26	C13    12.2800     8.7510    -4.9980	C.2	1	PYC1    -0.1040
@<TRIPOS>BOND
1	11	21	2
2	12	14	1
3	12	15	1
4	12	18	1
5	13	16	2
6	13	17	1
7	14	16	1
8	14	19	2
9	15	17	2
10	15	20	1
11	16	21	1
12	17	22	1
13	1	18	1
14	2	18	1
15	3	18	1
16	4	19	1
17	19	23	1
18	5	20	1
19	20	24	2
20	21	25	1
21	6	22	1
22	22	26	2
23	7	23	1
24	23	25	2
25	8	24	1
26	24	26	1
27	9	25	1
28	10	26	1
