# created with PyMOL 3.0.0
@<TRIPOS>MOLECULE
pyc
26 28 1                 
SMALL
USER_CHARGES
@<TRIPOS>ATOM
1	 H01	7.015	6.952	-7.500	 H	1	PYC1	0.000	
2	 H02	8.334	5.869	-6.995	 H	1	PYC1	0.000	
3	 H03	7.727	7.115	-5.877	 H	1	PYC1	0.000	
4	 H04	7.031	7.617	-9.371	 H	1	PYC1	0.000	
5	 H05	9.472	6.840	-4.960	 H	1	PYC1	0.000	
6	 H06	12.876	10.041	-6.611	 H	1	PYC1	0.000	
7	 H07	6.947	8.760	-11.550	 H	1	PYC1	0.000	
8	 H08	11.438	7.391	-3.561	 H	1	PYC1	0.000	
9	 H09	8.646	10.301	-12.273	 H	1	PYC1	0.000	
10	 H10	13.145	8.994	-4.381	 H	1	PYC1	0.000	
11	   O	10.737	10.896	-10.787	O.2	1	PYC1	0.000	
12	   N	8.915	7.830	-7.447	N.pl3	1	PYC1	0.000	
13	   N	10.954	9.677	-8.303	N.2	1	PYC1	0.000	
14	   C	8.818	8.454	-8.700	C.2	1	PYC1	0.000	
15	   C	10.033	8.122	-6.608	C.2	1	PYC1	0.000	
16	   C	9.937	9.409	-9.065	C.2	1	PYC1	0.000	
17	   C	11.020	9.035	-7.057	C.2	1	PYC1	0.000	
18	   C	7.936	6.881	-6.921	C.3	1	PYC1	0.000	
19	   C	7.844	8.300	-9.615	C.2	1	PYC1	0.000	
20	   C	10.214	7.545	-5.335	C.2	1	PYC1	0.000	
21	   C	9.873	10.112	-10.420	C.2	1	PYC1	0.000	
22	   C	12.126	9.337	-6.251	C.2	1	PYC1	0.000	
23	   C	7.790	8.965	-10.890	C.2	1	PYC1	0.000	
24	   C	11.324	7.855	-4.541	C.2	1	PYC1	0.000	
25	   C	8.727	9.821	-11.298	C.2	1	PYC1	0.000	
26	   C	12.280	8.751	-4.998	C.2	1	PYC1	0.000	
@<TRIPOS>BOND
1 11 21 2
2 12 14 ar
3 12 15 ar
4 12 18 1
5 13 16 ar
6 13 17 ar
7 14 16 ar
8 14 19 ar
9 15 17 ar
10 15 20 ar
11 16 21 ar
12 17 22 ar
13 1 18 1
14 2 18 1
15 3 18 1
16 4 19 1
17 19 23 ar
18 5 20 1
19 20 24 ar
20 21 25 ar
21 6 22 1
22 22 26 ar
23 7 23 1
24 23 25 ar
25 8 24 1
26 24 26 ar
27 9 25 1
28 10 26 1
@<TRIPOS>SUBSTRUCTURE
1	PYC1	1	GROUP	1 A	PYC
