MODEL 1
REMARK VINA RESULT:    -8.167      0.000      0.000
REMARK INTER + INTRA:         -12.850
REMARK INTER:                 -11.270
REMARK INTRA:                  -1.579
REMARK UNBOUND:                -1.579
REMARK  7 active torsions:
REMARK  status: ('A' for Active; 'I' for Inactive)
REMARK    1  A    between atoms: S_2  and  N_15 
REMARK    2  A    between atoms: O_4  and  C_23 
REMARK    3  A    between atoms: N_12  and  CA_19 
REMARK       I    between atoms: N_12  and  C_24 
REMARK    4  A    between atoms: N_13  and  CA_25 
REMARK       I    between atoms: N_13  and  C_27 
REMARK       I    between atoms: N_14  and  C_27 
REMARK    5  A    between atoms: CA_18  and  C_23 
REMARK    6  A    between atoms: C_24  and  CA_25 
REMARK    7  A    between atoms: CA_25  and  C_26 
ROOT
HETATM    1  CA  MEZ     1     -41.673  -5.942  41.888  1.00  0.00     0.211 C 
ENDROOT
BRANCH   1   2
HETATM    2  N   MEZ     1     -41.578  -4.517  42.103  1.00  0.00    -0.325 N 
HETATM    3  C   MEZ     1     -42.673  -3.670  41.982  1.00  0.00     0.327 C 
HETATM    4  O   MEZ     1     -43.803  -4.063  41.683  1.00  0.00    -0.247 OA
HETATM    5  N   MEZ     1     -42.373  -2.309  42.225  1.00  0.00    -0.249 N 
HETATM    6  C   MEZ     1     -43.404  -1.288  42.039  1.00  0.00     0.159 C 
HETATM    7  C   MEZ     1     -41.148  -1.697  42.572  1.00  0.00     0.342 C 
HETATM    8  C   MEZ     1     -42.850   0.007  42.628  1.00  0.00     0.167 C 
HETATM    9  N   MEZ     1     -41.404  -0.294  42.687  1.00  0.00    -0.225 N 
HETATM   10  O   MEZ     1     -40.063  -2.224  42.764  1.00  0.00    -0.245 OA
HETATM   11  H   MEZ     1     -40.679  -4.128  42.371  1.00  0.00     0.165 HD
BRANCH   9  12
HETATM   12  S   MEZ     1     -40.347   0.858  43.327  1.00  0.00     0.232 S 
HETATM   13  O   MEZ     1     -40.518   0.932  44.768  1.00  0.00    -0.206 OA
HETATM   14  O   MEZ     1     -39.025   0.685  42.745  1.00  0.00    -0.206 OA
HETATM   15  C   MEZ     1     -41.047   2.337  42.630  1.00  0.00     0.186 C 
ENDBRANCH   9  12
ENDBRANCH   1   2
BRANCH   1  16
HETATM   16  C   MEZ     1     -41.300  -6.230  40.439  1.00  0.00     0.245 C 
HETATM   17  O   MEZ     1     -42.013  -6.884  39.679  1.00  0.00    -0.271 OA
HETATM   18  N   MEZ     1     -40.094  -5.638  40.061  1.00  0.00    -0.344 N 
HETATM   19  H   MEZ     1     -39.584  -5.110  40.766  1.00  0.00     0.163 HD
BRANCH  18  20
HETATM   20  CA  MEZ     1     -39.550  -5.735  38.708  1.00  0.00     0.199 A 
HETATM   21  C   MEZ     1     -38.213  -5.038  38.417  1.00  0.00     0.160 A 
HETATM   22  S   MEZ     1     -37.260  -4.445  39.862  1.00  0.00    -0.135 SA
HETATM   23  N   MEZ     1     -37.647  -6.366  38.163  1.00  0.00    -0.219 NA
HETATM   24  C   MEZ     1     -35.757  -5.396  39.311  1.00  0.00     0.029 C 
HETATM   25  CA  MEZ     1     -36.346  -6.692  38.711  1.00  0.00     0.182 C 
HETATM   26  C   MEZ     1     -34.881  -5.693  40.529  1.00  0.00     0.029 C 
HETATM   27  C   MEZ     1     -34.987  -4.524  38.309  1.00  0.00     0.029 C 
HETATM   28  C   MEZ     1     -38.801  -7.050  38.415  1.00  0.00     0.227 A 
HETATM   29  O   MEZ     1     -39.054  -8.230  38.498  1.00  0.00    -0.277 OA
BRANCH  25  30
HETATM   30  C   MEZ     1     -35.545  -7.309  37.610  1.00  0.00     0.160 C 
HETATM   31  OXT MEZ     1     -34.491  -7.910  37.760  1.00  0.00    -0.649 OA
BRANCH  30  32
HETATM   32  O   MEZ     1     -36.147  -7.111  36.411  1.00  0.00    -0.775 OA
HETATM   33  H   MEZ     1     -36.327  -7.957  35.948  1.00  0.00     0.167 HD
ENDBRANCH  30  32
ENDBRANCH  25  30
ENDBRANCH  18  20
ENDBRANCH   1  16
BRANCH   1  34
HETATM   34  C   MEZ     1     -40.808  -6.717  42.854  1.00  0.00    -0.026 A 
HETATM   35  C   MEZ     1     -39.943  -6.040  43.714  1.00  0.00     0.010 A 
HETATM   36  C   MEZ     1     -39.145  -6.755  44.606  1.00  0.00     0.001 A 
HETATM   37  C   MEZ     1     -39.211  -8.148  44.638  1.00  0.00     0.000 A 
HETATM   38  C   MEZ     1     -40.075  -8.825  43.778  1.00  0.00     0.001 A 
HETATM   39  C   MEZ     1     -40.874  -8.110  42.886  1.00  0.00     0.010 A 
ENDBRANCH   1  34
TORSDOF 7
ENDMDL
