@<TRIPOS>MOLECULE
VIA.pdb
   63    66     1     0     0
SMALL
bcc


@<TRIPOS>ATOM
      1 C1          -3.0710     3.7050    -2.0390 c3         1 VIA      -0.094100
      2 C2          -2.4950     3.4100    -0.6610 c3         1 VIA      -0.076400
      3 C3          -3.5280     2.8350     0.3110 c3         1 VIA      -0.100700
      4 C4          -4.0000     1.4710    -0.0570 cc         1 VIA       0.339600
      5 N1          -5.2350     1.2770    -0.5600 nd         1 VIA      -0.479800
      6 N2          -5.3020    -0.0630    -0.7620 na         1 VIA       0.142400
      7 C5          -4.1630    -0.7130    -0.4060 cd         1 VIA      -0.219900
      8 C6          -3.3150     0.2500     0.0490 cc         1 VIA       0.015100
      9 N3          -2.0240    -0.0130     0.5080 nc         1 VIA      -0.562100
     10 C7          -1.6890    -1.2750     0.4720 cd         1 VIA       0.526500
     11 N4          -2.5330    -2.2850     0.0230 ns         1 VIA      -0.462400
     12 C8          -3.8090    -2.0830    -0.4530 c          1 VIA       0.734100
     13 O1          -4.5180    -2.9950    -0.8620 o          1 VIA      -0.640500
     14 C9          -0.3160    -1.6890     0.9380 ca         1 VIA      -0.201900
     15 C10          0.2280    -2.9850     0.7730 ca         1 VIA       0.213100
     16 C11          1.5330    -3.2400     1.2210 ca         1 VIA      -0.239000
     17 C12          2.2980    -2.2370     1.8220 ca         1 VIA       0.034000
     18 C13          1.7620    -0.9610     1.9750 ca         1 VIA      -0.417500
     19 C14          0.4570    -0.6910     1.5600 ca         1 VIA       0.061000
     20 S1           2.7140     0.3160     2.7710 sy         1 VIA       1.514200
     21 O2           1.7830     1.1790     3.4660 o          1 VIA      -0.652800
     22 O3           3.7950    -0.3370     3.4810 o          1 VIA      -0.652800
     23 N5           3.3850     1.1800     1.4800 n3         1 VIA      -0.818500
     24 C15          4.4000     0.4750     0.6500 c6         1 VIA       0.222800
     25 C16          5.1560     1.4870    -0.2360 c6         1 VIA       0.156800
     26 N6           4.2400     2.2680    -1.0950 n3         1 VIA      -0.730600
     27 C17          3.2470     2.9640    -0.2460 c6         1 VIA       0.156800
     28 C18          2.4520     1.9830     0.6390 c6         1 VIA       0.222800
     29 C19          4.9890     3.2320    -1.9000 c3         1 VIA       0.156100
     30 O4          -0.5610    -3.9280     0.1650 os         1 VIA      -0.334900
     31 C20         -0.1200    -5.2840     0.0700 c3         1 VIA       0.129400
     32 C21          0.6810    -5.5030    -1.2010 c3         1 VIA      -0.134100
     33 C22         -6.5030    -0.6500    -1.3050 c3         1 VIA       0.028600
     34 H1          -2.3110     4.1790    -2.6700 hc         1 VIA       0.035033
     35 H2          -3.9260     4.3850    -1.9700 hc         1 VIA       0.035033
     36 H3          -3.3970     2.7900    -2.5420 hc         1 VIA       0.035033
     37 H4          -1.6420     2.7280    -0.7640 hc         1 VIA       0.045200
     38 H5          -2.1050     4.3450    -0.2410 hc         1 VIA       0.045200
     39 H6          -4.3800     3.5210     0.3910 hc         1 VIA       0.060700
     40 H7          -3.0790     2.7880     1.3110 hc         1 VIA       0.060700
     41 H8          -2.2020    -3.2400    -0.0010 hn         1 VIA       0.346500
     42 H9           2.0000    -4.2140     1.1130 ha         1 VIA       0.151000
     43 H10          3.3040    -2.4620     2.1690 ha         1 VIA       0.162000
     44 H11          0.0440     0.3040     1.7210 ha         1 VIA       0.169000
     45 H12          3.9110    -0.2760     0.0200 h1         1 VIA       0.059200
     46 H13          5.1290    -0.0300     1.2920 h1         1 VIA       0.059200
     47 H14          5.7420     2.1580     0.4060 h1         1 VIA       0.041700
     48 H15          5.8620     0.9320    -0.8640 h1         1 VIA       0.041700
     49 H16          2.5360     3.5040    -0.8820 h1         1 VIA       0.041700
     50 H17          3.7450     3.7030     0.3950 h1         1 VIA       0.041700
     51 H18          1.7740     2.5630     1.2740 h1         1 VIA       0.059200
     52 H19          1.8550     1.3200     0.0040 h1         1 VIA       0.059200
     53 H20          5.5400     3.9510    -1.2830 h1         1 VIA       0.034033
     54 H21          4.3120     3.7900    -2.5570 h1         1 VIA       0.034033
     55 H22          5.7030     2.7150    -2.5490 h1         1 VIA       0.034033
     56 H23         -1.0270    -5.8970     0.0140 h1         1 VIA       0.064700
     57 H24          0.4090    -5.6190     0.9690 h1         1 VIA       0.064700
     58 H25          0.9550    -6.5560    -1.3090 hc         1 VIA       0.054700
     59 H26          0.0980    -5.2000    -2.0770 hc         1 VIA       0.054700
     60 H27          1.5960    -4.9020    -1.2080 hc         1 VIA       0.054700
     61 H28         -6.8910    -1.3730    -0.5830 h1         1 VIA       0.072700
     62 H29         -7.2450     0.1330    -1.4790 h1         1 VIA       0.072700
     63 H30         -6.2520    -1.1400    -2.2490 h1         1 VIA       0.072700
@<TRIPOS>BOND
     1    34     1 1   
     2    54    29 1   
     3    55    29 1   
     4    36     1 1   
     5    63    33 1   
     6    59    32 1   
     7     1    35 1   
     8     1     2 1   
     9    29    53 1   
    10    29    26 1   
    11    62    33 1   
    12    58    32 1   
    13    33     6 1   
    14    33    61 1   
    15    60    32 1   
    16    32    31 1   
    17    26    27 1   
    18    26    25 1   
    19    49    27 1   
    20    48    25 1   
    21    13    12 2   
    22    37     2 1   
    23     6     5 1   
    24     6     7 1   
    25     2    38 1   
    26     2     3 1   
    27     5     4 2   
    28    12     7 1   
    29    12    11 1   
    30     7     8 2   
    31    27    50 1   
    32    27    28 1   
    33    25    47 1   
    34    25    24 1   
    35     4     8 1   
    36     4     3 1   
    37    41    11 1   
    38    52    28 1   
    39    56    31 1   
    40    45    24 1   
    41    11    10 1   
    42     8     9 1   
    43    31    30 1   
    44    31    57 1   
    45    30    15 1   
    46     3    39 1   
    47     3    40 1   
    48    10     9 2   
    49    10    14 1   
    50    28    51 1   
    51    28    23 1   
    52    24    46 1   
    53    24    23 1   
    54    15    14 ar  
    55    15    16 ar  
    56    14    19 ar  
    57    42    16 1   
    58    16    17 ar  
    59    23    20 1   
    60    19    44 1   
    61    19    18 ar  
    62    17    18 ar  
    63    17    43 1   
    64    18    20 1   
    65    20    21 2   
    66    20    22 2   
@<TRIPOS>SUBSTRUCTURE
     1 VIA         1 TEMP              0 ****  ****    0 ROOT
