@<TRIPOS>MOLECULE
*****
 58 61 0 0 0
SMALL
GASTEIGER

@<TRIPOS>ATOM
      1  C1       -28.1248   -8.6122   -6.6334 C.3     1  LEV1       -0.0473
      2  N1       -28.4987   -6.1676   -6.6405 N.3     1  LEV1       -0.2912
      3  O1       -27.5372   -7.0728   -9.2243 O.3     1  LEV1       -0.3718
      4  C2       -27.4548   -7.2276   -6.7525 C.3     1  LEV1        0.0314
      5  N2       -28.8582   -6.2707  -11.6541 N.3     1  LEV1       -0.2920
      6  O2       -31.1547   -2.8992   -6.3663 O.3     1  LEV1       -0.3910
      7  C3       -26.6495   -7.1189   -8.0732 C.3     1  LEV1        0.0635
      8  N3       -29.3887   -7.4787  -14.2484 N.3     1  LEV1       -0.3029
      9  O3       -30.7489   -3.4793   -3.2614 O.3     1  LEV1       -0.3668
     10  C4       -28.7626   -6.2873   -9.1138 C.3     1  LEV1        0.0927
     11  O4       -28.9281   -2.3160   -4.1947 O.3     1  LEV1       -0.3668
     12  C5       -28.7082   -5.3607   -7.8722 C.3     1  LEV1        0.0438
     13  C6       -28.3753   -5.3247   -5.4251 C.3     1  LEV1        0.0094
     14  C7       -29.6439   -4.4626   -5.2188 C.3     1  LEV1        0.0487
     15  C8       -29.9274   -3.6210   -6.4996 C.3     1  LEV1        0.0682
     16  C9       -30.0081   -4.5299   -7.7523 C.3     1  LEV1        0.0062
     17  C10      -30.2180   -3.6981   -9.0453 C.3     1  LEV1       -0.0135
     18  C11      -30.2563   -4.5976  -10.3004 C.3     1  LEV1        0.1192
     19  C12      -28.9583   -5.4503  -10.4058 C.3     1  LEV1        0.0693
     20  C13      -29.7911   -7.4257  -11.7746 C.3     1  LEV1        0.0122
     21  C14      -29.4262   -8.2878  -13.0044 C.3     1  LEV1        0.0114
     22  C15      -28.4508   -6.3367  -14.1149 C.3     1  LEV1        0.0114
     23  C16      -28.8003   -5.4545  -12.8950 C.3     1  LEV1        0.0122
     24  C17      -30.7319   -7.0867  -14.7361 C.3     1  LEV1       -0.0127
     25  C18      -29.4866   -3.6097   -3.9229 C.3     1  LEV1        0.1595
     26  F1       -31.3610   -5.3666  -10.2480 F       1  LEV1       -0.2438
     27  H01      -28.8449   -8.7725   -7.4392 H       1  LEV1        0.0245
     28  H02      -27.3758   -9.4057   -6.6800 H       1  LEV1        0.0245
     29  H03      -28.6531   -8.6990   -5.6812 H       1  LEV1        0.0245
     30  H04      -26.7459   -7.1318   -5.9248 H       1  LEV1        0.0482
     31  H05      -31.2340   -2.3230   -7.1460 H       1  LEV1        0.2098
     32  H06      -26.0551   -6.2012   -8.0608 H       1  LEV1        0.0575
     33  H07      -25.9717   -7.9697   -8.1832 H       1  LEV1        0.0575
     34  H08      -30.9470   -2.5440   -3.0870 H       1  LEV1        0.2125
     35  H09      -29.5989   -6.9811   -8.9911 H       1  LEV1        0.0628
     36  H10      -28.9720   -1.7520   -3.4020 H       1  LEV1        0.2125
     37  H11      -27.8660   -4.6719   -7.9921 H       1  LEV1        0.0492
     38  H12      -27.4979   -4.6772   -5.5129 H       1  LEV1        0.0432
     39  H13      -28.2463   -5.9698   -4.5513 H       1  LEV1        0.0432
     40  H14      -30.4813   -5.1521   -5.0745 H       1  LEV1        0.0387
     41  H15      -29.1117   -2.9068   -6.6434 H       1  LEV1        0.0601
     42  H16      -30.8539   -5.2138   -7.6321 H       1  LEV1        0.0343
     43  H17      -29.4114   -2.9681   -9.1497 H       1  LEV1        0.0297
     44  H18      -31.1544   -3.1384   -8.9867 H       1  LEV1        0.0297
     45  H19      -30.3547   -3.9592  -11.1813 H       1  LEV1        0.0668
     46  H20      -28.1233   -4.7445  -10.4396 H       1  LEV1        0.0517
     47  H21      -30.8199   -7.0743  -11.8780 H       1  LEV1        0.0439
     48  H22      -29.7282   -8.0573  -10.8857 H       1  LEV1        0.0439
     49  H23      -28.4384   -8.7276  -12.8390 H       1  LEV1        0.0439
     50  H24      -30.1466   -9.1037  -13.1102 H       1  LEV1        0.0439
     51  H25      -28.4661   -5.7317  -15.0258 H       1  LEV1        0.0439
     52  H26      -27.4373   -6.7264  -13.9836 H       1  LEV1        0.0439
     53  H27      -28.0346   -4.6808  -12.7910 H       1  LEV1        0.0439
     54  H28      -29.7633   -4.9672  -13.0672 H       1  LEV1        0.0439
     55  H29      -31.2326   -6.4310  -14.0191 H       1  LEV1        0.0391
     56  H30      -30.6407   -6.5624  -15.6911 H       1  LEV1        0.0391
     57  H31      -31.3455   -7.9791  -14.8862 H       1  LEV1        0.0391
     58  H32      -28.8179   -4.1145   -3.2088 H       1  LEV1        0.0909
@<TRIPOS>BOND
     1    56    24    1
     2    57    24    1
     3    51    22    1
     4    24     8    1
     5    24    55    1
     6     8    22    1
     7     8    21    1
     8    22    52    1
     9    22    23    1
    10    50    21    1
    11    54    23    1
    12    21    49    1
    13    21    20    1
    14    23    53    1
    15    23     5    1
    16    47    20    1
    17    20     5    1
    18    20    48    1
    19     5    19    1
    20    45    18    1
    21    46    19    1
    22    19    18    1
    23    19    10    1
    24    18    26    1
    25    18    17    1
    26     3    10    1
    27     3     7    1
    28    10    35    1
    29    10    12    1
    30    43    17    1
    31    17    44    1
    32    17    16    1
    33    33     7    1
    34    32     7    1
    35     7     4    1
    36    37    12    1
    37    12    16    1
    38    12     2    1
    39    16    42    1
    40    16    15    1
    41    31     6    1
    42    27     1    1
    43    28     1    1
    44     4     2    1
    45     4     1    1
    46     4    30    1
    47     2    13    1
    48     1    29    1
    49    41    15    1
    50    15     6    1
    51    15    14    1
    52    38    13    1
    53    13    14    1
    54    13    39    1
    55    14    40    1
    56    14    25    1
    57    11    25    1
    58    11    36    1
    59    25    58    1
    60    25     9    1
    61     9    34    1
