MODEL 1
REMARK VINA RESULT:    -5.523      0.000      0.000
REMARK INTER + INTRA:          -7.252
REMARK INTER:                  -6.653
REMARK INTRA:                  -0.599
REMARK UNBOUND:                -0.599
REMARK  5 active torsions:
REMARK  status: ('A' for Active; 'I' for Inactive)
REMARK    1  A    between atoms: C2_2  and  N1_3 
REMARK    2  A    between atoms: C4_5  and  C12_15 
REMARK    3  A    between atoms: C5_6  and  O1_7 
REMARK    4  A    between atoms: C12_15  and  O2_16 
REMARK    5  A    between atoms: C12_15  and  O3_17 
ROOT
HETATM    1  N1  NDX     1     -29.216  -6.311  -7.404  1.00  0.00     0.122 N 
HETATM    2  C3  NDX     1     -29.324  -5.157  -6.489  1.00  0.00     0.287 C 
HETATM    3  C4  NDX     1     -30.223  -4.073  -7.108  1.00  0.00     0.098 C 
HETATM    4  C5  NDX     1     -29.612  -3.613  -8.455  1.00  0.00     0.136 C 
HETATM    5  C6  NDX     1     -29.377  -4.820  -9.396  1.00  0.00     0.079 C 
HETATM    6  C7  NDX     1     -28.568  -5.938  -8.688  1.00  0.00     0.460 C 
HETATM    7  N2  NDX     1     -28.463  -7.121  -9.571  1.00  0.00     0.122 N 
HETATM    8  C8  NDX     1     -28.162  -6.832 -10.992  1.00  0.00     0.219 C 
HETATM    9  C9  NDX     1     -27.660  -5.395 -11.224  1.00  0.00     0.036 C 
HETATM   10  C10 NDX     1     -28.680  -4.371 -10.707  1.00  0.00     0.013 C 
HETATM   11  C11 NDX     1     -27.132  -7.843 -11.496  1.00  0.00     0.042 C 
HETATM   12  H7  NDX     1     -29.372  -7.644  -9.540  1.00  0.00     0.319 HD
ENDROOT
BRANCH   3  13
HETATM   13  C12 NDX     1     -30.442  -2.909  -6.104  1.00  0.00     0.262 C 
BRANCH  13  14
HETATM   14  O2  NDX     1     -29.435  -1.935  -6.223  1.00  0.00    -0.371 OA
HETATM   15  H12 NDX     1     -29.248  -1.811  -7.190  1.00  0.00     0.212 HD
ENDBRANCH  13  14
BRANCH  13  16
HETATM   16  O3  NDX     1     -31.708  -2.320  -6.277  1.00  0.00    -0.371 OA
HETATM   17  H12 NDX     1     -32.288  -3.005  -6.701  1.00  0.00     0.212 HD
ENDBRANCH  13  16
ENDBRANCH   3  13
BRANCH   4  18
HETATM   18  O1  NDX     1     -30.428  -2.653  -9.082  1.00  0.00    -0.394 OA
HETATM   19  H4  NDX     1     -31.344  -3.032  -9.140  1.00  0.00     0.210 HD
ENDBRANCH   4  18
BRANCH   1  20
HETATM   20  C2  NDX     1     -28.602  -7.486  -6.732  1.00  0.00     0.271 C 
HETATM   21  C1  NDX     1     -27.224  -7.219  -6.112  1.00  0.00     0.037 C 
ENDBRANCH   1  20
TORSDOF 5
ENDMDL
