@<TRIPOS>MOLECULE
pyc.pdb
 26 28 0 0 0
SMALL
GASTEIGER

@<TRIPOS>ATOM
      1  H01        7.0150    6.9520   -7.5000 H       1  PYC1        0.0993
      2  H02        8.3340    5.8690   -6.9950 H       1  PYC1        0.0993
      3  H03        7.7270    7.1150   -5.8770 H       1  PYC1        0.0993
      4  H04        7.0310    7.6170   -9.3710 H       1  PYC1        0.0463
      5  H05        9.4720    6.8400   -4.9600 H       1  PYC1        0.0684
      6  H06       12.8760   10.0410   -6.6110 H       1  PYC1        0.0641
      7  H07        6.9470    8.7600  -11.5500 H       1  PYC1        0.0581
      8  H08       11.4380    7.3910   -3.5610 H       1  PYC1        0.0620
      9  H09        8.6460   10.3010  -12.2730 H       1  PYC1        0.0653
     10  H10       13.1450    8.9940   -4.3810 H       1  PYC1        0.0618
     11  O         10.7370   10.8960  -10.7870 O.2     1  PYC1       -0.2854
     12  N          8.9150    7.8300   -7.4470 N.ar    1  PYC1       -0.1935
     13  N         10.9540    9.6770   -8.3030 N.ar    1  PYC1       -0.2313
     14  C          8.8180    8.4540   -8.7000 C.ar    1  PYC1        0.2214
     15  C         10.0330    8.1220   -6.6080 C.ar    1  PYC1        0.2333
     16  C          9.9370    9.4090   -9.0650 C.ar    1  PYC1        0.1783
     17  C         11.0200    9.0350   -7.0570 C.ar    1  PYC1        0.1358
     18  C          7.9360    6.8810   -6.9210 C.3     1  PYC1        0.1414
     19  C          7.8440    8.3000   -9.6150 C.3     1  PYC1        0.0806
     20  C         10.2140    7.5450   -5.3350 C.ar    1  PYC1        0.0119
     21  C          9.8730   10.1120  -10.4200 C.2     1  PYC1        0.2100
     22  C         12.1260    9.3370   -6.2510 C.ar    1  PYC1       -0.0298
     23  C          7.7900    8.9650  -10.8900 C.2     1  PYC1       -0.0661
     24  C         11.3240    7.8550   -4.5410 C.ar    1  PYC1       -0.0554
     25  C          8.7270    9.8210  -11.2980 C.2     1  PYC1       -0.0157
     26  C         12.2800    8.7510   -4.9980 C.ar    1  PYC1       -0.0593
@<TRIPOS>UNITY_ATOM_ATTR
12 1
charge 1
@<TRIPOS>BOND
     1     1    18    1
     2     2    18    1
     3     3    18    1
     4     4    19    1
     5     5    20    1
     6     6    22    1
     7     7    23    1
     8     8    24    1
     9     9    25    1
    10    10    26    1
    11    11    21    2
    12    12    14   ar
    13    12    15   ar
    14    12    18    1
    15    13    16   ar
    16    13    17   ar
    17    14    16   ar
    18    14    19    1
    19    15    17   ar
    20    15    20   ar
    21    16    21    1
    22    17    22   ar
    23    19    23    1
    24    20    24   ar
    25    21    25    1
    26    22    26   ar
    27    23    25    2
    28    24    26   ar
