@<TRIPOS>MOLECULE
pyc.pdb
   26    28     1     0     0
SMALL
bcc


@<TRIPOS>ATOM
      1 H01          7.0150     6.9520    -7.5000 h1         1 PYC       0.055367
      2 H02          8.3340     5.8690    -6.9950 h1         1 PYC       0.055367
      3 H03          7.7270     7.1150    -5.8770 h1         1 PYC       0.055367
      4 H04          7.0310     7.6170    -9.3710 ha         1 PYC       0.139000
      5 H05          9.4720     6.8400    -4.9600 ha         1 PYC       0.140000
      6 H06         12.8760    10.0410    -6.6110 ha         1 PYC       0.160000
      7 H07          6.9470     8.7600   -11.5500 ha         1 PYC       0.135000
      8 H08         11.4380     7.3910    -3.5610 ha         1 PYC       0.138000
      9 H09          8.6460    10.3010   -12.2730 ha         1 PYC       0.155000
     10 H10         13.1450     8.9940    -4.3810 ha         1 PYC       0.143000
     11 O           10.7370    10.8960   -10.7870 o          1 PYC      -0.505100
     12 N            8.9150     7.8300    -7.4470 na         1 PYC      -0.127100
     13 N1          10.9540     9.6770    -8.3030 nc         1 PYC      -0.549000
     14 C            8.8180     8.4540    -8.7000 cd         1 PYC      -0.010600
     15 C1          10.0330     8.1220    -6.6080 ca         1 PYC      -0.004600
     16 C2           9.9370     9.4090    -9.0650 cd         1 PYC       0.341800
     17 C3          11.0200     9.0350    -7.0570 ca         1 PYC       0.294600
     18 C4           7.9360     6.8810    -6.9210 c3         1 PYC       0.015600
     19 C5           7.8440     8.3000    -9.6150 cc         1 PYC      -0.260000
     20 C6          10.2140     7.5450    -5.3350 ca         1 PYC      -0.188000
     21 C7           9.8730    10.1120   -10.4200 c          1 PYC       0.471800
     22 C8          12.1260     9.3370    -6.2510 ca         1 PYC      -0.103300
     23 C9           7.7900     8.9650   -10.8900 cc         1 PYC      -0.026000
     24 C10         11.3240     7.8550    -4.5410 ca         1 PYC      -0.071000
     25 C11          8.7270     9.8210   -11.2980 cd         1 PYC      -0.281200
     26 C12         12.2800     8.7510    -4.9980 ca         1 PYC      -0.173000
@<TRIPOS>BOND
     1     1    18 1   
     2     2    18 1   
     3     3    18 1   
     4     4    19 1   
     5     5    20 1   
     6     6    22 1   
     7     7    23 1   
     8     8    24 1   
     9     9    25 1   
    10    10    26 1   
    11    11    21 2   
    12    12    14 1   
    13    12    15 1   
    14    12    18 1   
    15    13    16 2   
    16    13    17 1   
    17    14    16 1   
    18    14    19 2   
    19    15    17 ar  
    20    15    20 ar  
    21    16    21 1   
    22    17    22 ar  
    23    19    23 1   
    24    20    24 ar  
    25    21    25 1   
    26    22    26 ar  
    27    23    25 2   
    28    24    26 ar  
@<TRIPOS>SUBSTRUCTURE
     1 PYC         1 TEMP              0 ****  ****    0 ROOT
