REMARK  7 active torsions:
REMARK  status: ('A' for Active; 'I' for Inactive)
REMARK    1  A    between atoms: C2_2  and  C3_3 
REMARK    2  A    between atoms: C3_3  and  C4_4 
REMARK    3  A    between atoms: C7_10  and  C9_14 
REMARK    4  A    between atoms: C10_15  and  O4_30 
REMARK    5  A    between atoms: C13_18  and  S1_20 
REMARK    6  A    between atoms: S1_20  and  N5_23 
REMARK    7  A    between atoms: O4_30  and  C20_31 
ROOT
HETATM    1  C9  VIA     1      -0.316  -1.689   0.938  1.00  0.00     0.045 A 
HETATM    2  C10 VIA     1       0.228  -2.985   0.773  1.00  0.00     0.082 A 
HETATM    3  C11 VIA     1       1.533  -3.240   1.221  1.00  0.00     0.039 A 
HETATM    4  C12 VIA     1       2.298  -2.237   1.822  1.00  0.00     0.028 A 
HETATM    5  C13 VIA     1       1.762  -0.961   1.975  1.00  0.00     0.080 A 
HETATM    6  C14 VIA     1       0.457  -0.691   1.560  1.00  0.00     0.043 A 
ENDROOT
BRANCH   1   7
HETATM    7  C7  VIA     1      -1.689  -1.275   0.472  1.00  0.00     0.144 A 
HETATM    8  N3  VIA     1      -2.024  -0.013   0.508  1.00  0.00    -0.226 NA
HETATM    9  C6  VIA     1      -3.315   0.250   0.049  1.00  0.00     0.119 A 
HETATM   10  C4  VIA     1      -4.000   1.471  -0.057  1.00  0.00     0.086 A 
HETATM   11  C5  VIA     1      -4.163  -0.713  -0.406  1.00  0.00     0.151 A 
HETATM   12  N1  VIA     1      -5.235   1.277  -0.560  1.00  0.00    -0.174 NA
HETATM   13  N2  VIA     1      -5.302  -0.063  -0.762  1.00  0.00    -0.266 N 
HETATM   14  C22 VIA     1      -6.503  -0.650  -1.305  1.00  0.00     0.180 C 
HETATM   15  C8  VIA     1      -3.809  -2.083  -0.453  1.00  0.00     0.278 A 
HETATM   16  N4  VIA     1      -2.533  -2.285   0.023  1.00  0.00    -0.305 N 
HETATM   17  O1  VIA     1      -4.518  -2.995  -0.862  1.00  0.00    -0.265 OA
HETATM   18  H8  VIA     1      -2.202  -3.240  -0.001  1.00  0.00     0.170 HD
BRANCH  10  19
HETATM   19  C3  VIA     1      -3.528   2.835   0.311  1.00  0.00     0.063 C 
BRANCH  19  20
HETATM   20  C2  VIA     1      -2.495   3.410  -0.661  1.00  0.00     0.002 C 
HETATM   21  C1  VIA     1      -3.071   3.705  -2.039  1.00  0.00     0.005 C 
ENDBRANCH  19  20
ENDBRANCH  10  19
ENDBRANCH   1   7
BRANCH   2  22
HETATM   22  O4  VIA     1      -0.561  -3.928   0.165  1.00  0.00    -0.351 OA
BRANCH  22  23
HETATM   23  C20 VIA     1      -0.120  -5.284   0.070  1.00  0.00     0.171 C 
HETATM   24  C21 VIA     1       0.681  -5.503  -1.201  1.00  0.00     0.034 C 
ENDBRANCH  22  23
ENDBRANCH   2  22
BRANCH   5  25
HETATM   25  S1  VIA     1       2.714   0.316   2.771  1.00  0.00     0.261 S 
HETATM   26  O2  VIA     1       1.783   1.179   3.466  1.00  0.00    -0.200 OA
HETATM   27  O3  VIA     1       3.795  -0.337   3.481  1.00  0.00    -0.200 OA
BRANCH  25  28
HETATM   28  N5  VIA     1       3.385   1.180   1.480  1.00  0.00    -0.303 N 
HETATM   29  C15 VIA     1       4.400   0.475   0.650  1.00  0.00     0.165 C 
HETATM   30  C16 VIA     1       5.156   1.487  -0.236  1.00  0.00     0.292 C 
HETATM   31  N6  VIA     1       4.240   2.268  -1.095  1.00  0.00     0.087 N 
HETATM   32  C17 VIA     1       3.247   2.964  -0.246  1.00  0.00     0.292 C 
HETATM   33  C19 VIA     1       4.989   3.232  -1.900  1.00  0.00     0.310 C 
HETATM   34  C18 VIA     1       2.452   1.983   0.639  1.00  0.00     0.165 C 
ENDBRANCH  25  28
ENDBRANCH   5  25
TORSDOF 7
