@<TRIPOS>MOLECULE
*****
 41 42 0 0 0
SMALL
GASTEIGER

@<TRIPOS>ATOM
      1  C1       -32.5477   -0.9001   49.4953 C.3     1  NDX1       -0.0523
      2  N1       -31.4491   -2.7536   48.1770 N.3     1  NDX1       -0.2866
      3  O1       -28.0081   -4.9138   46.8815 O.3     1  NDX1       -0.3909
      4  C2       -32.7070   -2.2820   48.8287 C.3     1  NDX1       -0.0025
      5  N2       -32.6607   -3.4811   46.1872 N.3     1  NDX1       -0.2983
      6  O2       -27.8572   -5.0534   49.9753 O.3     1  NDX1       -0.3668
      7  C3       -30.4090   -3.0899   49.1876 C.3     1  NDX1        0.0101
      8  O3       -26.7240   -3.1309   49.2962 O.3     1  NDX1       -0.3668
      9  C4       -29.0508   -3.4187   48.5334 C.3     1  NDX1        0.0488
     10  C5       -29.2355   -4.6161   47.5611 C.3     1  NDX1        0.0693
     11  C6       -30.3454   -4.3150   46.5249 C.3     1  NDX1        0.0144
     12  C7       -31.6661   -3.8810   47.2211 C.3     1  NDX1        0.0666
     13  C8       -32.6879   -4.2935   44.9437 C.3     1  NDX1        0.0062
     14  C9       -32.0666   -5.6890   45.1653 C.3     1  NDX1       -0.0373
     15  C10      -30.5946   -5.5588   45.6212 C.3     1  NDX1       -0.0438
     16  C11      -34.1366   -4.4040   44.4312 C.3     1  NDX1       -0.0496
     17  C12      -28.0002   -3.6646   49.6589 C.3     1  NDX1        0.1595
     18  H01      -32.1310   -0.1792   48.7878 H       1  NDX1        0.0242
     19  H02      -33.5226   -0.5313   49.8212 H       1  NDX1        0.0242
     20  H03      -31.9010   -0.9459   50.3730 H       1  NDX1        0.0242
     21  H04      -27.7250   -4.1240   46.3850 H       1  NDX1        0.2098
     22  H05      -33.4989   -2.1715   48.0846 H       1  NDX1        0.0424
     23  H06      -33.0428   -3.0144   49.5684 H       1  NDX1        0.0424
     24  H07      -33.5862   -3.4473   46.6093 H       1  NDX1        0.1237
     25  H08      -27.7060   -5.5460   49.1400 H       1  NDX1        0.2125
     26  H09      -30.7410   -3.9434   49.7866 H       1  NDX1        0.0432
     27  H10      -30.2546   -2.2414   49.8570 H       1  NDX1        0.0432
     28  H11      -26.4500   -2.4810   49.9770 H       1  NDX1        0.2125
     29  H12      -28.7427   -2.5429   47.9545 H       1  NDX1        0.0387
     30  H13      -29.5415   -5.4939   48.1372 H       1  NDX1        0.0602
     31  H14      -30.0138   -3.4867   45.8912 H       1  NDX1        0.0354
     32  H15      -32.0759   -4.7353   47.7823 H       1  NDX1        0.0634
     33  H16      -32.0913   -3.7776   44.1856 H       1  NDX1        0.0458
     34  H17      -32.1131   -6.2798   44.2472 H       1  NDX1        0.0280
     35  H18      -32.6391   -6.2270   45.9260 H       1  NDX1        0.0280
     36  H19      -30.3198   -6.4779   46.1449 H       1  NDX1        0.0270
     37  H20      -29.9461   -5.4886   44.7444 H       1  NDX1        0.0270
     38  H21      -34.5534   -3.4114   44.2457 H       1  NDX1        0.0245
     39  H22      -34.1710   -4.9674   43.4958 H       1  NDX1        0.0245
     40  H23      -34.7694   -4.9122   45.1631 H       1  NDX1        0.0245
     41  H24      -28.2976   -3.1489   50.5849 H       1  NDX1        0.0909
@<TRIPOS>BOND
     1    39    16    1
     2    33    13    1
     3    34    14    1
     4    16    38    1
     5    16    13    1
     6    16    40    1
     7    37    15    1
     8    13    14    1
     9    13     5    1
    10    14    15    1
    11    14    35    1
    12    15    36    1
    13    15    11    1
    14    31    11    1
    15     5    24    1
    16     5    12    1
    17    21     3    1
    18    11    12    1
    19    11    10    1
    20     3    10    1
    21    12    32    1
    22    12     2    1
    23    10    30    1
    24    10     9    1
    25    22     4    1
    26    29     9    1
    27     2     4    1
    28     2     7    1
    29    18     1    1
    30     9     7    1
    31     9    17    1
    32     4     1    1
    33     4    23    1
    34    19     1    1
    35    25     6    1
    36     1    20    1
    37     7    26    1
    38     7    27    1
    39     8    17    1
    40     8    28    1
    41    17     6    1
    42    17    41    1
