@<TRIPOS>MOLECULE
*****
 53 55 0 0 0
SMALL
GASTEIGER

@<TRIPOS>ATOM
      1  C1       -35.6618   -5.4808   43.8274 C.3     1  NOR1       -0.0523
      2  N1       -36.5872   -4.6086   41.6569 N.3     1  NOR1       -0.2987
      3  O1       -36.1686   -3.8717   37.5039 O.3     1  NOR1       -0.3910
      4  C2       -36.5862   -5.7415   42.6223 C.3     1  NOR1       -0.0036
      5  N2       -41.4039   -3.0602   41.0348 N.3     1  NOR1       -0.2942
      6  O2       -34.1235   -7.0692   40.3198 O.3     1  NOR1       -0.3668
      7  C3       -35.3156   -4.4396   40.8881 C.3     1  NOR1        0.0090
      8  N3       -43.5905   -1.6210   42.2991 N.3     1  NOR1       -0.3136
      9  O3       -35.0486   -7.1443   38.2006 O.3     1  NOR1       -0.3668
     10  C4       -35.3312   -5.0868   39.4718 C.3     1  NOR1        0.0487
     11  C5       -36.5825   -4.6396   38.6407 C.3     1  NOR1        0.0681
     12  C6       -37.5889   -3.8142   39.4830 C.3     1  NOR1        0.0038
     13  C7       -38.9223   -3.5191   38.7319 C.3     1  NOR1       -0.0136
     14  C8       -40.1014   -4.3509   39.2807 C.3     1  NOR1        0.1168
     15  C9       -40.3383   -4.0980   40.8056 C.3     1  NOR1        0.0430
     16  C10      -38.9904   -3.8731   41.5648 C.3     1  NOR1       -0.0186
     17  C11      -37.8236   -4.5634   40.8244 C.3     1  NOR1        0.0172
     18  C12      -42.7345   -3.6947   41.2488 C.3     1  NOR1        0.0119
     19  C13      -43.8645   -2.6457   41.2720 C.3     1  NOR1        0.0087
     20  C14      -42.2971   -0.9536   42.0527 C.3     1  NOR1        0.0087
     21  C15      -41.1450   -1.9811   42.0310 C.3     1  NOR1        0.0119
     22  C16      -35.2321   -6.6365   39.5231 C.3     1  NOR1        0.1595
     23  F1       -41.2039   -4.1075   38.5456 F       1  NOR1       -0.2439
     24  H01      -34.6127   -5.4419   43.5294 H       1  NOR1        0.0242
     25  H02      -35.9231   -4.5380   44.3135 H       1  NOR1        0.0242
     26  H03      -35.7715   -6.2837   44.5595 H       1  NOR1        0.0242
     27  H04      -36.0140   -2.9520   37.7850 H       1  NOR1        0.2098
     28  H05      -37.5960   -5.8858   43.0150 H       1  NOR1        0.0424
     29  H06      -36.2882   -6.6665   42.1232 H       1  NOR1        0.0424
     30  H07      -34.1770   -8.0380   40.4510 H       1  NOR1        0.2125
     31  H08      -34.4583   -4.8038   41.4574 H       1  NOR1        0.0432
     32  H09      -35.1568   -3.3667   40.7501 H       1  NOR1        0.0432
     33  H10      -44.3397   -0.9319   42.3095 H       1  NOR1        0.1220
     34  H11      -34.6180   -6.4480   37.6620 H       1  NOR1        0.2125
     35  H12      -34.4294   -4.7308   38.9652 H       1  NOR1        0.0387
     36  H13      -37.1001   -5.5307   38.2735 H       1  NOR1        0.0601
     37  H14      -37.1384   -2.8410   39.7005 H       1  NOR1        0.0342
     38  H15      -38.8136   -3.6991   37.6598 H       1  NOR1        0.0297
     39  H16      -39.1659   -2.4596   38.8473 H       1  NOR1        0.0297
     40  H17      -39.8698   -5.4093   39.1324 H       1  NOR1        0.0667
     41  H18      -40.7201   -5.0458   41.1974 H       1  NOR1        0.0491
     42  H19      -39.0905   -4.2517   42.5842 H       1  NOR1        0.0296
     43  H20      -38.7259   -2.8186   41.6387 H       1  NOR1        0.0296
     44  H21      -38.1122   -5.5944   40.5954 H       1  NOR1        0.0467
     45  H22      -42.7296   -4.2344   42.2006 H       1  NOR1        0.0439
     46  H23      -42.9397   -4.4110   40.4486 H       1  NOR1        0.0439
     47  H24      -43.9413   -2.1710   40.2896 H       1  NOR1        0.0437
     48  H25      -44.8138   -3.1393   41.4961 H       1  NOR1        0.0437
     49  H26      -42.1121   -0.2166   42.8386 H       1  NOR1        0.0437
     50  H27      -42.3352   -0.4327   41.0913 H       1  NOR1        0.0437
     51  H28      -40.2399   -1.4311   41.7661 H       1  NOR1        0.0439
     52  H29      -41.0242   -2.4153   43.0276 H       1  NOR1        0.0439
     53  H30      -36.1464   -7.0844   39.9409 H       1  NOR1        0.0909
@<TRIPOS>BOND
     1     3    27    1
     2     3    11    1
     3    38    13    1
     4    34     9    1
     5    36    11    1
     6     9    22    1
     7    23    14    1
     8    13    39    1
     9    13    14    1
    10    13    12    1
    11    11    12    1
    12    11    10    1
    13    40    14    1
    14    35    10    1
    15    14    15    1
    16    12    37    1
    17    12    17    1
    18    10    22    1
    19    10     7    1
    20    22    53    1
    21    22     6    1
    22    30     6    1
    23    47    19    1
    24    44    17    1
    25    15    41    1
    26    15     5    1
    27    15    16    1
    28    46    18    1
    29    17    16    1
    30    17     2    1
    31    32     7    1
    32     7    31    1
    33     7     2    1
    34     5    18    1
    35     5    21    1
    36    50    20    1
    37    18    19    1
    38    18    45    1
    39    16    43    1
    40    16    42    1
    41    19    48    1
    42    19     8    1
    43    51    21    1
    44     2     4    1
    45    21    20    1
    46    21    52    1
    47    20     8    1
    48    20    49    1
    49    29     4    1
    50     8    33    1
    51     4    28    1
    52     4     1    1
    53    24     1    1
    54     1    26    1
    55     1    25    1
