@<TRIPOS>MOLECULE
*****
   53    55     1     0     0
SMALL
bcc


@<TRIPOS>ATOM
      1 C1          16.0690    21.8860   -10.9020 c3         1 PEN      -0.089100
      2 N1          14.9690    18.8400   -12.9260 nq         1 PEN      -0.701600
      3 O1          12.7570    19.3250   -13.7570 oh         1 PEN      -0.612800
      4 S1          16.9900    20.5390   -13.1510 ss         1 PEN      -0.325200
      5 C2          15.5870    21.0730   -12.1320 c5         1 PEN       0.052100
      6 N2          14.3950    19.6330   -15.7490 n7         1 PEN      -0.842200
      7 O2          12.3970    19.4200   -17.0290 oh         1 PEN      -0.646800
      8 C3          14.8290    19.7630   -11.7620 c5         1 PEN       0.105500
      9 O3          14.6300    19.4160    -9.3310 oh         1 PEN      -0.619300
     10 C4          16.0350    19.1630   -13.8760 cy         1 PEN       0.223600
     11 O4          15.3170    17.6270   -10.6310 oh         1 PEN      -0.619300
     12 C5          15.0440    18.6130   -14.8720 cy         1 PEN       0.157500
     13 C6          13.8420    18.4070   -13.8390 cy         1 PEN       0.317300
     14 C7          13.8200    19.3090   -17.0650 c3         1 PEN       0.380300
     15 C8          14.4440    20.2110   -18.1580 c3         1 PEN      -0.101400
     16 C9          14.2760    21.7410   -17.9210 c6         1 PEN      -0.065700
     17 C10         15.4240    22.5270   -18.5990 c6         1 PEN      -0.072900
     18 C11         15.3790    24.0280   -18.2160 c6         1 PEN      -0.076400
     19 C12         13.9390    24.5540   -17.9920 c6         1 PEN      -0.076400
     20 C13         12.9160    23.7570   -18.8260 c6         1 PEN      -0.076400
     21 C14         12.8940    22.2630   -18.4130 c6         1 PEN      -0.072900
     22 C15         15.3850    19.0490   -10.4930 c3         1 PEN       0.361900
     23 C16         14.6560    22.0050   -12.9460 c3         1 PEN      -0.089100
     24 H01         16.5130    22.8320   -11.2210 hc         1 PEN       0.051533
     25 H02         15.2350    22.1140   -10.2330 hc         1 PEN       0.051533
     26 H03         16.8340    21.3530   -10.3360 hc         1 PEN       0.051533
     27 H04         12.6260    19.6680   -14.6570 ho         1 PEN       0.436000
     28 H05         13.9580    20.4210   -15.2780 hn         1 PEN       0.394800
     29 H06         12.1360    20.3430   -17.2060 ho         1 PEN       0.407000
     30 H07         13.7730    19.9810   -11.5830 h1         1 PEN       0.094700
     31 H08         14.1710    20.2650    -9.4810 ho         1 PEN       0.429000
     32 H09         16.6930    18.2940   -14.0260 h2         1 PEN       0.103700
     33 H10         15.5570    17.4300   -11.5620 ho         1 PEN       0.429000
     34 H11         15.3920    17.7090   -15.3890 h1         1 PEN       0.078700
     35 H12         12.9610    17.8720   -14.2070 h2         1 PEN       0.071700
     36 H13         14.0490    18.2570   -17.2920 h2         1 PEN       0.081700
     37 H14         14.0470    19.9330   -19.1380 hc         1 PEN       0.063200
     38 H15         15.5100    19.9710   -18.1900 hc         1 PEN       0.063200
     39 H16         14.3570    21.9500   -16.8520 hc         1 PEN       0.043700
     40 H17         15.3460    22.4200   -19.6840 hc         1 PEN       0.041700
     41 H18         16.3950    22.1190   -18.3050 hc         1 PEN       0.041700
     42 H19         15.8660    24.6060   -19.0060 hc         1 PEN       0.040200
     43 H20         15.9550    24.1900   -17.3020 hc         1 PEN       0.040200
     44 H21         13.8910    25.6150   -18.2490 hc         1 PEN       0.039200
     45 H22         13.6780    24.4660   -16.9340 hc         1 PEN       0.039200
     46 H23         13.1810    23.8390   -19.8840 hc         1 PEN       0.040200
     47 H24         11.9190    24.1860   -18.7110 hc         1 PEN       0.040200
     48 H25         12.1610    22.1250   -17.6140 hc         1 PEN       0.041700
     49 H26         12.5440    21.6810   -19.2690 hc         1 PEN       0.041700
     50 H27         16.4430    19.2920   -10.3200 h2         1 PEN       0.076700
     51 H28         13.7830    22.2940   -12.3560 hc         1 PEN       0.051533
     52 H29         15.1840    22.9150   -13.2400 hc         1 PEN       0.051533
     53 H30         14.3020    21.5280   -13.8570 hc         1 PEN       0.051533
@<TRIPOS>BOND
     1    46    20 1   
     2    49    21 1   
     3    40    17 1   
     4    37    15 1   
     5    47    20 1   
     6    20    21 1   
     7    20    19 1   
     8    21    48 1   
     9    21    16 1   
    10    42    18 1   
    11    38    15 1   
    12    17    16 1   
    13    17    18 1   
    14    17    41 1   
    15    15    16 1   
    16    15    14 1   
    17    44    19 1   
    18    16    39 1   
    19    19    18 1   
    20    19    45 1   
    21    18    43 1   
    22    36    14 1   
    23    29     7 1   
    24    14     7 1   
    25    14     6 1   
    26     6    28 1   
    27     6    12 1   
    28    34    12 1   
    29    12    10 1   
    30    12    13 1   
    31    27     3 1   
    32    32    10 1   
    33    10     4 1   
    34    10     2 1   
    35     4     5 1   
    36    13    35 1   
    37    13     3 1   
    38    13     2 1   
    39    53    23 1   
    40     2     8 1   
    41    23    52 1   
    42    23     5 1   
    43    23    51 1   
    44     5     8 1   
    45     5     1 1   
    46    24     1 1   
    47     8    30 1   
    48     8    22 1   
    49    33    11 1   
    50     1    25 1   
    51     1    26 1   
    52    11    22 1   
    53    22    50 1   
    54    22     9 1   
    55     9    31 1   
@<TRIPOS>SUBSTRUCTURE
     1 PEN         1 TEMP              0 ****  ****    0 ROOT
