MODEL 1
REMARK VINA RESULT:    -8.098      0.000      0.000
REMARK INTER + INTRA:         -12.466
REMARK INTER:                 -11.175
REMARK INTRA:                  -1.291
REMARK UNBOUND:                -1.291
REMARK  7 active torsions:
REMARK  status: ('A' for Active; 'I' for Inactive)
REMARK    1  A    between atoms: S_2  and  N_15 
REMARK    2  A    between atoms: O_4  and  C_23 
REMARK    3  A    between atoms: N_12  and  CA_19 
REMARK       I    between atoms: N_12  and  C_24 
REMARK    4  A    between atoms: N_13  and  CA_25 
REMARK       I    between atoms: N_13  and  C_27 
REMARK       I    between atoms: N_14  and  C_27 
REMARK    5  A    between atoms: CA_18  and  C_23 
REMARK    6  A    between atoms: C_24  and  CA_25 
REMARK    7  A    between atoms: CA_25  and  C_26 
ROOT
HETATM    1  CA  MEZ     1      14.272   7.240   4.547  1.00  0.00     0.211 C 
ENDROOT
BRANCH   1   2
HETATM    2  N   MEZ     1      13.390   6.350   5.267  1.00  0.00    -0.325 N 
HETATM    3  C   MEZ     1      12.445   5.558   4.627  1.00  0.00     0.327 C 
HETATM    4  O   MEZ     1      12.284   5.551   3.404  1.00  0.00    -0.247 OA
HETATM    5  N   MEZ     1      11.675   4.763   5.507  1.00  0.00    -0.249 N 
HETATM    6  C   MEZ     1      10.575   3.950   4.987  1.00  0.00     0.159 C 
HETATM    7  C   MEZ     1      11.729   4.652   6.915  1.00  0.00     0.342 C 
HETATM    8  C   MEZ     1      10.134   3.030   6.123  1.00  0.00     0.167 C 
HETATM    9  N   MEZ     1      10.720   3.713   7.296  1.00  0.00    -0.225 N 
HETATM   10  O   MEZ     1      12.484   5.216   7.693  1.00  0.00    -0.245 OA
HETATM   11  H   MEZ     1      13.483   6.292   6.276  1.00  0.00     0.165 HD
BRANCH   9  12
HETATM   12  S   MEZ     1      10.530   3.029   8.829  1.00  0.00     0.232 S 
HETATM   13  O   MEZ     1      11.827   2.636   9.353  1.00  0.00    -0.206 OA
HETATM   14  O   MEZ     1       9.627   3.849   9.621  1.00  0.00    -0.206 OA
HETATM   15  C   MEZ     1       9.657   1.541   8.395  1.00  0.00     0.186 C 
ENDBRANCH   9  12
ENDBRANCH   1   2
BRANCH   1  16
HETATM   16  C   MEZ     1      13.618   8.614   4.491  1.00  0.00     0.245 C 
HETATM   17  O   MEZ     1      13.147   9.175   5.480  1.00  0.00    -0.271 OA
HETATM   18  N   MEZ     1      13.654   9.181   3.216  1.00  0.00    -0.344 N 
HETATM   19  H   MEZ     1      14.074   8.636   2.468  1.00  0.00     0.163 HD
BRANCH  18  20
HETATM   20  CA  MEZ     1      13.129  10.513   2.923  1.00  0.00     0.199 A 
HETATM   21  C   MEZ     1      13.630  11.222   1.656  1.00  0.00     0.160 A 
HETATM   22  S   MEZ     1      14.567  10.206   0.458  1.00  0.00    -0.135 SA
HETATM   23  N   MEZ     1      12.255  11.155   1.151  1.00  0.00    -0.219 NA
HETATM   24  C   MEZ     1      13.410  10.690  -0.918  1.00  0.00     0.029 C 
HETATM   25  CA  MEZ     1      12.031  10.762  -0.225  1.00  0.00     0.182 C 
HETATM   26  C   MEZ     1      13.437   9.605  -1.996  1.00  0.00     0.029 C 
HETATM   27  C   MEZ     1      13.900  12.022  -1.501  1.00  0.00     0.029 C 
HETATM   28  C   MEZ     1      11.744  10.518   2.244  1.00  0.00     0.227 A 
HETATM   29  O   MEZ     1      10.659  10.041   2.484  1.00  0.00    -0.277 OA
BRANCH  25  30
HETATM   30  C   MEZ     1      11.070  11.744  -0.815  1.00  0.00     0.160 C 
HETATM   31  OXT MEZ     1      10.935  12.902  -0.446  1.00  0.00    -0.649 OA
BRANCH  30  32
HETATM   32  O   MEZ     1      10.361  11.176  -1.821  1.00  0.00    -0.775 OA
HETATM   33  H   MEZ     1      10.591  10.230  -1.942  1.00  0.00     0.167 HD
ENDBRANCH  30  32
ENDBRANCH  25  30
ENDBRANCH  18  20
ENDBRANCH   1  16
BRANCH   1  34
HETATM   34  C   MEZ     1      15.647   7.297   5.170  1.00  0.00    -0.026 A 
HETATM   35  C   MEZ     1      16.674   7.990   4.529  1.00  0.00     0.010 A 
HETATM   36  C   MEZ     1      17.944   8.044   5.105  1.00  0.00     0.001 A 
HETATM   37  C   MEZ     1      18.186   7.403   6.319  1.00  0.00     0.000 A 
HETATM   38  C   MEZ     1      17.160   6.710   6.959  1.00  0.00     0.001 A 
HETATM   39  C   MEZ     1      15.890   6.656   6.384  1.00  0.00     0.010 A 
ENDBRANCH   1  34
TORSDOF 7
ENDMDL
