@<TRIPOS>MOLECULE
*****
 59 61 0 0 0
SMALL
GASTEIGER

@<TRIPOS>ATOM
      1  C1         7.7386  -35.8155   -8.2692 C.3     1  STM1        0.0348
      2  N1         9.5702  -28.9433   -1.8260 N.3     1  STM1       -0.2703
      3  O1         8.6002  -34.1508   -6.7368 O.3     1  STM1       -0.3286
      4  C2         8.9938  -35.0545   -7.7990 C.3     1  STM1        0.1472
      5  N2        11.2494  -27.1820   -1.9903 N.3     1  STM1       -0.2970
      6  O2         9.6550  -32.0445   -6.6053 O.3     1  STM1       -0.3271
      7  C3         9.6052  -34.1296   -8.8697 C.3     1  STM1        0.1697
      8  N3        11.7010  -29.1198   -0.6438 N.3     1  STM1       -0.2970
      9  O3         9.9025  -33.3056   -4.0734 O.3     1  STM1       -0.3795
     10  C4         8.8160  -32.8235   -8.7038 C.3     1  STM1        0.2028
     11  N4         8.8624  -29.3248   -6.7677 N.3     1  STM1       -0.2703
     12  O4        10.5975  -31.6867   -1.8954 O.3     1  STM1       -0.3804
     13  C5         8.5643  -32.7725   -7.1926 C.3     1  STM1        0.2660
     14  N5         8.9678  -27.6477   -8.4737 N.3     1  STM1       -0.2970
     15  O5         9.5098  -27.7014   -4.4510 O.3     1  STM1       -0.3815
     16  C6         9.2712  -31.3625   -5.3992 C.3     1  STM1        0.1637
     17  N6        10.7204  -29.2652   -8.2937 N.3     1  STM1       -0.2970
     18  O6         7.5222  -32.9692   -9.3260 O.3     1  STM1       -0.3241
     19  C7         9.5529  -29.8610   -5.5769 C.3     1  STM1        0.1146
     20  N7         7.0933  -33.4923  -11.9936 N.3     1  STM1       -0.2913
     21  O7         5.7047  -31.6369   -9.9212 O.3     1  STM1       -0.3268
     22  C8         9.1974  -29.0843   -4.2895 C.3     1  STM1        0.1441
     23  O8         6.1732  -28.2709   -9.5401 O.3     1  STM1       -0.3794
     24  C9         9.9733  -29.6415   -3.0710 C.3     1  STM1        0.1142
     25  O9         4.9703  -29.2878  -12.5650 O.3     1  STM1       -0.3795
     26  C10        9.7776  -31.1699   -2.9373 C.3     1  STM1        0.1564
     27  O10        7.3154  -30.6711  -13.6272 O.3     1  STM1       -0.3804
     28  C11       10.1217  -31.9054   -4.2402 C.3     1  STM1        0.1671
     29  O11       11.6662  -32.7884   -9.1230 O.3     1  STM1       -0.3794
     30  C12       10.6530  -28.2126   -1.1293 C.3     1  STM1        0.1675
     31  O12        9.4829  -34.6429  -10.1972 O.3     1  STM1       -0.3794
     32  C13        9.7585  -28.4503   -7.5377 C.3     1  STM1        0.1675
     33  C14        7.1166  -31.8398  -10.1125 C.3     1  STM1        0.2528
     34  C15        7.3792  -32.0897  -11.6232 C.3     1  STM1        0.1408
     35  C16        6.5403  -31.1370  -12.5148 C.3     1  STM1        0.1589
     36  C17        5.9248  -29.9492  -11.7428 C.3     1  STM1        0.1683
     37  C18        5.2144  -30.3778  -10.4301 C.3     1  STM1        0.1760
     38  C19        5.2371  -29.3228   -9.2991 C.3     1  STM1        0.1693
     39  C20        7.6285  -33.8550  -13.3153 C.3     1  STM1        0.0860
     40  C21       11.1050  -33.9631   -8.5382 C.3     1  STM1        0.1689
     41  H1         9.1109  -29.5936   -1.1925 H       1  STM1        0.1258
     42  H3         8.5559  -30.0945   -7.3578 H       1  STM1        0.1258
     43  H6        11.9250  -32.2070   -8.3850 H       1  STM1        0.2105
     44  H13       10.3730  -33.7520   -4.7960 H       1  STM1        0.2105
     45  H14       10.1510  -31.4650   -1.0700 H       1  STM1        0.2105
     46  H15       11.9550  -26.6613   -1.4727 H       1  STM1        0.1213
     47  H16       10.5341  -26.5144   -2.2735 H       1  STM1        0.1213
     48  H17       12.4036  -28.5988   -0.1228 H       1  STM1        0.1213
     49  H18       11.3059  -29.8076   -0.0061 H       1  STM1        0.1213
     50  H19       10.4050  -27.5810   -4.0850 H       1  STM1        0.2105
     51  H20        9.5786  -27.0246   -8.9988 H       1  STM1        0.1213
     52  H21        8.3234  -27.0543   -7.9533 H       1  STM1        0.1213
     53  H22       11.3565  -28.6632   -8.8130 H       1  STM1        0.1213
     54  H23       10.2337  -29.8442   -8.9748 H       1  STM1        0.1213
     55  H31        6.9540  -28.4060   -8.9690 H       1  STM1        0.2105
     56  H32        4.3530  -28.8570  -11.9480 H       1  STM1        0.2105
     57  H33        6.7280  -30.1730  -14.2290 H       1  STM1        0.2105
     58  H34        6.0932  -33.6713  -11.9416 H       1  STM1        0.1235
     59  H39        9.7050  -35.5810  -10.1550 H       1  STM1        0.2105
@<TRIPOS>BOND
     1    57    27    1
     2    27    35    1
     3    39    20    1
     4    58    20    1
     5    35    36    1
     6    35    34    1
     7    25    56    1
     8    25    36    1
     9    20    34    1
    10    36    37    1
    11    34    33    1
    12    37    21    1
    13    37    38    1
    14    59    31    1
    15    33    21    1
    16    33    18    1
    17    31     7    1
    18    23    38    1
    19    23    55    1
    20    54    17    1
    21    18    10    1
    22    40    29    1
    23    40     7    1
    24    29    43    1
    25    51    14    1
    26     7    10    1
    27     7     4    1
    28    10    13    1
    29    53    17    1
    30    17    32    1
    31    14    52    1
    32    14    32    1
    33    32    11    1
    34     1     4    1
    35     4     3    1
    36    13     3    1
    37    13     6    1
    38    42    11    1
    39    11    19    1
    40     6    16    1
    41    19    16    1
    42    19    22    1
    43    16    28    1
    44    44     9    1
    45    28     9    1
    46    28    26    1
    47    15    22    1
    48    15    50    1
    49    22    24    1
    50    24    26    1
    51    24     2    1
    52    26    12    1
    53    47     5    1
    54    12    45    1
    55     5    46    1
    56     5    30    1
    57     2    41    1
    58     2    30    1
    59    30     8    1
    60     8    48    1
    61     8    49    1
