@<TRIPOS>MOLECULE
*****
   59    61     1     0     0
SMALL
bcc


@<TRIPOS>ATOM
      1 C1           7.7390   -35.8160    -8.2690 c1         1 STM       0.247700
      2 N1           9.5700   -28.9430    -1.8260 nu         1 STM      -0.484400
      3 O1           8.6000   -34.1510    -6.7370 os         1 STM      -0.228200
      4 C2           8.9940   -35.0540    -7.7990 c2         1 STM      -0.265800
      5 N2          11.2490   -27.1820    -1.9900 n8         1 STM      -0.837600
      6 O2           9.6550   -32.0440    -6.6050 os         1 STM      -0.194200
      7 C3           9.6050   -34.1300    -8.8700 c5         1 STM       0.164300
      8 N3          11.7010   -29.1200    -0.6440 n8         1 STM      -0.837600
      9 O3           9.9020   -33.3060    -4.0730 oh         1 STM      -0.513100
     10 C4           8.8160   -32.8240    -8.7040 c2         1 STM      -0.165100
     11 N4           8.8620   -29.3250    -6.7680 nu         1 STM      -0.649400
     12 O4          10.5980   -31.6870    -1.8950 oh         1 STM      -0.534100
     13 C5           8.5640   -32.7730    -7.1930 c2         1 STM       0.329200
     14 N5           8.9680   -27.6480    -8.4740 n8         1 STM      -0.864600
     15 O5           9.5100   -27.7010    -4.4510 oh         1 STM      -0.719100
     16 C6           9.2710   -31.3630    -5.3990 ca         1 STM       0.035100
     17 N6          10.7200   -29.2650    -8.2940 n8         1 STM      -0.864600
     18 O6           7.5220   -32.9690    -9.3260 os         1 STM      -0.308400
     19 C7           9.5530   -29.8610    -5.5770 ca         1 STM       0.067600
     20 N7           7.0930   -33.4920   -11.9940 nu         1 STM      -0.495200
     21 O7           5.7050   -31.6370    -9.9210 os         1 STM      -0.350800
     22 C8           9.1970   -29.0840    -4.2900 ca         1 STM       0.350100
     23 O8           6.1730   -28.2710    -9.5400 oh         1 STM      -0.545600
     24 C9           9.9730   -29.6420    -3.0710 ca         1 STM      -0.230400
     25 O9           4.9700   -29.2880   -12.5650 oh         1 STM      -0.505100
     26 C10          9.7780   -31.1700    -2.9370 ca         1 STM       0.168100
     27 O10          7.3150   -30.6710   -13.6270 oh         1 STM      -0.255100
     28 C11         10.1220   -31.9050    -4.2400 ca         1 STM      -0.072900
     29 O11         11.6660   -32.7880    -9.1230 oh         1 STM      -0.418600
     30 C12         10.6530   -28.2130    -1.1290 cz         1 STM       0.544000
     31 O12          9.4830   -34.6430   -10.1970 oh         1 STM      -0.581800
     32 C13          9.7580   -28.4500    -7.5380 cz         1 STM       0.370000
     33 C14          7.1170   -31.8400   -10.1130 c2         1 STM       0.570000
     34 C15          7.3790   -32.0900   -11.6230 c2         1 STM      -0.113700
     35 C16          6.5400   -31.1370   -12.5150 c2         1 STM      -0.299900
     36 C17          5.9250   -29.9490   -11.7430 c2         1 STM       0.259800
     37 C18          5.2140   -30.3780   -10.4300 c2         1 STM      -0.023300
     38 C19          5.2370   -29.3230    -9.2990 c1         1 STM      -0.154400
     39 C20          7.6280   -33.8550   -13.3150 c1         1 STM       0.217800
     40 C21         11.1050   -33.9630    -8.5380 c1         1 STM       0.073500
     41 H1           9.1110   -29.5940    -1.1920 hn         1 STM       0.455800
     42 H3           8.5560   -30.0950    -7.3580 hn         1 STM       0.400800
     43 H6          11.9250   -32.2070    -8.3850 ho         1 STM       0.471000
     44 H13         10.3730   -33.7520    -4.7960 ho         1 STM       0.413000
     45 H14         10.1510   -31.4650    -1.0700 ho         1 STM       0.445000
     46 H15         11.9550   -26.6610    -1.4730 hn         1 STM       0.449550
     47 H16         10.5340   -26.5140    -2.2730 hn         1 STM       0.449550
     48 H17         12.4040   -28.5990    -0.1230 hn         1 STM       0.449550
     49 H18         11.3060   -29.8080    -0.0060 hn         1 STM       0.449550
     50 H19         10.4050   -27.5810    -4.0850 ho         1 STM       0.337000
     51 H20          9.5790   -27.0250    -8.9990 hn         1 STM       0.362800
     52 H21          8.3230   -27.0540    -7.9530 hn         1 STM       0.362800
     53 H22         11.3570   -28.6630    -8.8130 hn         1 STM       0.362800
     54 H23         10.2340   -29.8440    -8.9750 hn         1 STM       0.362800
     55 H31          6.9540   -28.4060    -8.9690 ho         1 STM       0.450000
     56 H32          4.3530   -28.8570   -11.9480 ho         1 STM       0.471000
     57 H33          6.7280   -30.1730   -14.2290 ho         1 STM       0.471000
     58 H34          6.0930   -33.6710   -11.9420 hn         1 STM       0.518800
     59 H39          9.7050   -35.5810   -10.1550 ho         1 STM       0.435000
@<TRIPOS>BOND
     1    57    27 1   
     2    27    35 1   
     3    39    20 1   
     4    58    20 1   
     5    35    36 1   
     6    35    34 1   
     7    25    56 1   
     8    25    36 1   
     9    20    34 1   
    10    36    37 1   
    11    34    33 1   
    12    37    21 1   
    13    37    38 1   
    14    59    31 1   
    15    33    21 1   
    16    33    18 1   
    17    31     7 1   
    18    23    38 1   
    19    23    55 1   
    20    54    17 1   
    21    18    10 1   
    22    40    29 1   
    23    40     7 1   
    24    29    43 1   
    25    51    14 1   
    26     7    10 1   
    27     7     4 1   
    28    10    13 1   
    29    53    17 1   
    30    17    32 1   
    31    14    52 1   
    32    14    32 1   
    33    32    11 1   
    34     1     4 1   
    35     4     3 1   
    36    13     3 1   
    37    13     6 1   
    38    42    11 1   
    39    11    19 1   
    40     6    16 1   
    41    19    16 ar  
    42    19    22 ar  
    43    16    28 ar  
    44    44     9 1   
    45    28     9 1   
    46    28    26 ar  
    47    15    22 1   
    48    15    50 1   
    49    22    24 ar  
    50    24    26 ar  
    51    24     2 1   
    52    26    12 1   
    53    47     5 1   
    54    12    45 1   
    55     5    46 1   
    56     5    30 1   
    57     2    41 1   
    58     2    30 1   
    59    30     8 1   
    60     8    48 1   
    61     8    49 1   
@<TRIPOS>SUBSTRUCTURE
     1 STM         1 TEMP              0 ****  ****    0 ROOT
