REMARK  9 active torsions:
REMARK  status: ('A' for Active; 'I' for Inactive)
REMARK    1  A    between atoms: O1_2  and  C11_9 
REMARK    2  A    between atoms: O1_2  and  C6_8 
REMARK    3  A    between atoms: C2_3  and  N31_31 
REMARK    4  A    between atoms: O2_4  and  C21_19 
REMARK    5  A    between atoms: O2_4  and  C4_6 
REMARK    6  A    between atoms: C13_14  and  C17_18 
REMARK    7  A    between atoms: C25_25  and  C27_27 
REMARK    8  A    between atoms: N31_31  and  C32_32 
REMARK    9  A    between atoms: C32_32  and  C33_33 
ROOT
HETATM    1  C1  Z34 A 500       5.167   9.498  22.684  1.00 33.01     0.199 A 
HETATM    2  C2  Z34 A 500       4.731   8.998  21.434  1.00 35.72     0.119 A 
HETATM    3  C3  Z34 A 500       5.449   7.916  20.857  1.00 32.60     0.199 A 
HETATM    4  C4  Z34 A 500       6.552   7.373  21.529  1.00 28.35     0.214 A 
HETATM    5  N5  Z34 A 500       6.908   7.876  22.698  1.00 26.32    -0.194 NA
HETATM    6  C6  Z34 A 500       6.279   8.893  23.308  1.00 28.67     0.214 A 
HETATM    7  F1  Z34 A 500       4.558  10.497  23.265  1.00 33.88    -0.199 F 
HETATM    8  F2  Z34 A 500       5.109   7.418  19.716  1.00 34.74    -0.199 F 
ENDROOT
BRANCH   4   9
HETATM    9  O2  Z34 A 500       7.212   6.389  20.976  1.00 24.97    -0.288 OA
BRANCH   9  10
HETATM   10  C21 Z34 A 500       6.916   5.132  20.663  1.00 26.73     0.102 A 
HETATM   11  C22 Z34 A 500       6.002   4.476  21.534  1.00 24.69     0.025 A 
HETATM   12  C23 Z34 A 500       5.630   3.140  21.294  1.00 24.68     0.002 A 
HETATM   13  C24 Z34 A 500       6.177   2.466  20.190  1.00 24.81     0.003 A 
HETATM   14  C25 Z34 A 500       7.091   3.121  19.315  1.00 28.62     0.035 A 
HETATM   15  C26 Z34 A 500       7.447   4.446  19.570  1.00 25.20     0.028 A 
BRANCH  14  16
HETATM   16  C27 Z34 A 500       7.622   2.462  18.209  1.00 30.28     0.135 A 
HETATM   17  N21 Z34 A 500       8.721   1.696  18.109  1.00 31.15    -0.330 N 
HETATM   18  C28 Z34 A 500       8.878   1.222  16.779  1.00 32.13     0.129 A 
HETATM   19  C30 Z34 A 500       9.646   1.353  19.130  1.00 32.81     0.127 C 
HETATM   20  C29 Z34 A 500       7.677   1.823  16.021  1.00 33.72     0.151 A 
HETATM   21  N22 Z34 A 500       7.006   2.547  17.021  1.00 33.16    -0.253 NA
ENDBRANCH  14  16
ENDBRANCH   9  10
ENDBRANCH   4   9
BRANCH   2  22
HETATM   22  N31 Z34 A 500       3.649   9.556  20.800  1.00 39.62    -0.334 N 
HETATM   23  C36 Z34 A 500       3.858  10.543  19.763  1.00 39.25     0.126 C 
BRANCH  22  24
HETATM   24  C32 Z34 A 500       2.290   9.145  21.165  1.00 46.25     0.201 C 
BRANCH  24  25
HETATM   25  C33 Z34 A 500       1.908   9.241  22.624  1.00 52.25     0.209 C 
HETATM   26  O34 Z34 A 500       1.348  10.266  23.125  1.00 55.74    -0.646 OA
HETATM   27  O35 Z34 A 500       2.152   8.185  23.459  1.00 53.23    -0.646 OA
ENDBRANCH  24  25
ENDBRANCH  22  24
ENDBRANCH   2  22
BRANCH   6  28
HETATM   28  O1  Z34 A 500       6.727   9.314  24.484  1.00 23.64    -0.284 OA
BRANCH  28  29
HETATM   29  C11 Z34 A 500       7.997   9.307  24.890  1.00 19.65     0.141 A 
HETATM   30  C12 Z34 A 500       8.288   8.568  26.039  1.00 17.96     0.031 A 
HETATM   31  C13 Z34 A 500       9.604   8.485  26.553  1.00 17.45     0.042 A 
HETATM   32  C14 Z34 A 500      10.640   9.183  25.860  1.00 14.40     0.007 A 
HETATM   33  C15 Z34 A 500      10.351   9.921  24.700  1.00 14.00     0.044 A 
HETATM   34  C16 Z34 A 500       9.024   9.981  24.210  1.00 18.90     0.218 A 
HETATM   35  O11 Z34 A 500       8.769  10.652  23.146  1.00 17.07    -0.284 OA
BRANCH  31  36
HETATM   36  C17 Z34 A 500       9.848   7.743  27.704  1.00 14.31     0.205 C 
HETATM   37  N11 Z34 A 500       8.845   7.171  28.404  1.00 15.76    -0.125 N 
HETATM   38  N12 Z34 A 500      11.068   7.515  28.171  1.00 14.20    -0.125 N 
ENDBRANCH  31  36
ENDBRANCH  28  29
ENDBRANCH   6  28
TORSDOF 9
