@<TRIPOS>MOLECULE
PGL
   43    42     1     0     0
SMALL
bcc


@<TRIPOS>ATOM
      1 C            0.1570    -2.3110     0.0610 c3         1 PGL       0.178400
      2 C1           0.3920    -3.8190    -0.1630 c3         1 PGL       0.100100
      3 C2           0.3990    -4.2070    -1.6490 c3         1 PGL       0.064400
      4 O            0.8990    -3.1470    -2.4590 os         1 PGL      -0.381600
      5 C3           2.0980    -3.2400    -3.1690 c3         1 PGL       0.046900
      6 C4           2.0560    -3.5220    -4.6320 c3         1 PGL      -0.133100
      7 O1           3.2050    -3.0850    -2.5870 oh         1 PGL      -0.412800
      8 O2           1.5580    -4.3020     0.5180 os         1 PGL      -0.474600
      9 C5           2.0910    -5.5960     0.4380 c3         1 PGL       0.332900
     10 O3           1.4480    -6.5990     0.8510 oh         1 PGL      -0.624800
     11 C6           3.4190    -5.7960    -0.2070 c3         1 PGL      -0.130100
     12 O4           1.1370    -1.7810     0.9280 os         1 PGL      -0.619900
     13 P            2.1340    -0.6710     0.0900 p5         1 PGL       1.850100
     14 O5           1.4510    -0.1720    -1.1640 oh         1 PGL      -0.825100
     15 O6           3.5720    -1.4490    -0.3460 oh         1 PGL      -0.825100
     16 H            4.0460    -1.5970     0.5100 ho         1 PGL       0.474500
     17 O7           2.5220     0.6760     1.0730 os         1 PGL      -0.623900
     18 C7           1.9200     0.5480     2.3440 c3         1 PGL       0.187400
     19 C8           0.5510     1.2410     2.4050 c3         1 PGL       0.125800
     20 N           -0.4880     0.2730     2.7390 n8         1 PGL      -0.938800
     21 H1          -1.3000     0.7930     3.1470 hn         1 PGL       0.358300
     22 H2          -0.1170    -0.3410     3.5000 hn         1 PGL       0.358300
     23 H3           0.2070    -1.8030    -0.8790 h1         1 PGL       0.056200
     24 H4          -0.8070    -2.1730     0.5040 h1         1 PGL       0.056200
     25 H5          -0.4500    -4.3110     0.2770 h1         1 PGL       0.066700
     26 H6           1.0190    -5.0690    -1.7810 h1         1 PGL       0.052700
     27 H7          -0.6070    -4.4150    -1.9480 h1         1 PGL       0.052700
     28 H8           2.7310    -3.2700    -2.3070 h2         1 PGL       0.241700
     29 H9           1.0840    -3.2860    -5.0130 hc         1 PGL       0.037033
     30 H10          2.7900    -2.9250    -5.1320 hc         1 PGL       0.037033
     31 H11          2.2640    -4.5580    -4.8020 hc         1 PGL       0.037033
     32 H12          3.8510    -2.7790    -3.2120 ho         1 PGL       0.415000
     33 H13          2.0640    -5.4530     1.4980 h2         1 PGL       0.090700
     34 H14          1.2010    -7.1430     0.1120 ho         1 PGL       0.412000
     35 H15          3.2880    -5.9250    -1.2610 hc         1 PGL       0.055700
     36 H16          4.0360    -4.9400    -0.0260 hc         1 PGL       0.055700
     37 H17          3.8870    -6.6660     0.2030 hc         1 PGL       0.055700
     38 H18          3.2030    -1.0030     0.9800 hp         1 PGL      -0.468700
     39 H19          0.5090    -0.2490    -1.0640 ho         1 PGL       0.474500
     40 H20          1.7910    -0.4920     2.5620 h1         1 PGL       0.045700
     41 H21          2.5600     1.0170     3.0620 h1         1 PGL       0.045700
     42 H22          0.5750     2.0060     3.1530 h1         1 PGL       0.045700
     43 H23          0.3340     1.6710     1.4500 h1         1 PGL       0.045700
@<TRIPOS>BOND
     1     1     2 1   
     2     1    12 1   
     3     1    23 1   
     4     1    24 1   
     5     2     3 1   
     6     2     8 1   
     7     2    25 1   
     8     3     4 1   
     9     3    26 1   
    10     3    27 1   
    11     4     5 1   
    12     5     6 1   
    13     5     7 1   
    14     5    28 1   
    15     6    29 1   
    16     6    30 1   
    17     6    31 1   
    18     7    32 1   
    19     8     9 1   
    20     9    10 1   
    21     9    11 1   
    22     9    33 1   
    23    10    34 1   
    24    11    35 1   
    25    11    36 1   
    26    11    37 1   
    27    12    13 1   
    28    13    14 1   
    29    13    15 1   
    30    13    17 1   
    31    13    38 1   
    32    14    39 1   
    33    15    16 1   
    34    17    18 1   
    35    18    19 1   
    36    18    40 1   
    37    18    41 1   
    38    19    20 1   
    39    19    42 1   
    40    19    43 1   
    41    20    21 1   
    42    20    22 1   
@<TRIPOS>SUBSTRUCTURE
     1 PGL         1 TEMP              0 ****  ****    0 ROOT
