MODEL 1
REMARK VINA RESULT:    -7.052      0.000      0.000
REMARK INTER + INTRA:          -9.077
REMARK INTER:                  -8.495
REMARK INTRA:                  -0.583
REMARK UNBOUND:                -0.583
REMARK  5 active torsions:
REMARK  status: ('A' for Active; 'I' for Inactive)
REMARK    1  A    between atoms: C7_9  and  C18_24 
REMARK    2  A    between atoms: C8_10  and  O2_11 
REMARK    3  A    between atoms: C12_15  and  N2_16 
REMARK    4  A    between atoms: C18_24  and  O3_25 
REMARK    5  A    between atoms: C18_24  and  O4_26 
ROOT
HETATM    1  C1  LEV     1      19.195  -6.145  16.065  1.00  0.00     0.045 C 
HETATM    2  C2  LEV     1      18.707  -5.001  15.174  1.00  0.00     0.243 C 
HETATM    3  C3  LEV     1      18.563  -5.483  13.706  1.00  0.00     0.203 C 
HETATM    4  O1  LEV     1      17.469  -6.364  13.522  1.00  0.00    -0.379 OA
HETATM    5  C4  LEV     1      16.254  -5.907  14.111  1.00  0.00     0.191 C 
HETATM    6  C5  LEV     1      16.333  -4.495  14.753  1.00  0.00     0.261 C 
HETATM    7  N1  LEV     1      17.433  -4.473  15.734  1.00  0.00     0.103 N 
HETATM    8  C6  LEV     1      17.603  -3.118  16.298  1.00  0.00     0.285 C 
HETATM    9  C7  LEV     1      16.323  -2.681  17.045  1.00  0.00     0.098 C 
HETATM   10  C8  LEV     1      15.097  -2.748  16.097  1.00  0.00     0.135 C 
HETATM   11  C9  LEV     1      14.993  -4.144  15.439  1.00  0.00     0.054 C 
HETATM   12  C10 LEV     1      13.840  -4.199  14.410  1.00  0.00     0.049 C 
HETATM   13  C11 LEV     1      13.759  -5.579  13.735  1.00  0.00     0.206 C 
HETATM   14  C12 LEV     1      15.117  -5.934  13.065  1.00  0.00     0.287 C 
HETATM   15  F1  LEV     1      13.408  -6.510  14.699  1.00  0.00    -0.247 F 
ENDROOT
BRANCH  14  16
HETATM   16  N2  LEV     1      15.121  -7.206  12.288  1.00  0.00     0.102 N 
HETATM   17  C13 LEV     1      14.592  -8.388  12.991  1.00  0.00     0.303 C 
HETATM   18  C14 LEV     1      14.894  -9.649  12.170  1.00  0.00     0.302 C 
HETATM   19  N3  LEV     1      14.361  -9.564  10.794  1.00  0.00     0.087 N 
HETATM   20  C15 LEV     1      14.762  -8.313  10.118  1.00  0.00     0.302 C 
HETATM   21  C17 LEV     1      12.906  -9.791  10.737  1.00  0.00     0.310 C 
HETATM   22  C16 LEV     1      14.478  -7.066  10.969  1.00  0.00     0.303 C 
ENDBRANCH  14  16
BRANCH  10  23
HETATM   23  O2  LEV     1      13.910  -2.437  16.789  1.00  0.00    -0.395 OA
HETATM   24  H6  LEV     1      14.101  -1.662  17.381  1.00  0.00     0.210 HD
ENDBRANCH  10  23
BRANCH   9  25
HETATM   25  C18 LEV     1      16.483  -1.271  17.666  1.00  0.00     0.262 C 
BRANCH  25  26
HETATM   26  O3  LEV     1      15.663  -1.146  18.797  1.00  0.00    -0.371 OA
HETATM   27  H12 LEV     1      15.097  -1.961  18.826  1.00  0.00     0.212 HD
ENDBRANCH  25  26
BRANCH  25  28
HETATM   28  O4  LEV     1      16.135  -0.282  16.731  1.00  0.00    -0.371 OA
HETATM   29  H20 LEV     1      16.935  -0.129  16.163  1.00  0.00     0.212 HD
ENDBRANCH  25  28
ENDBRANCH   9  25
TORSDOF 5
ENDMDL
