MODEL 1
REMARK VINA RESULT:    -7.755      0.000      0.000
REMARK INTER + INTRA:         -17.734
REMARK INTER:                 -14.783
REMARK INTRA:                  -2.952
REMARK UNBOUND:                -2.952
REMARK  22 active torsions:
REMARK  status: ('A' for Active; 'I' for Inactive)
REMARK    1  A    between atoms: C2_2  and  N6_42 
REMARK    2  A    between atoms: C3_3  and  O13_41 
REMARK    3  A    between atoms: C4_4  and  O5_20 
REMARK    4  A    between atoms: C5_5  and  O1_8 
REMARK    5  A    between atoms: C6_6  and  N1_7 
REMARK    6  A    between atoms: O1_8  and  C7_9 
REMARK    7  A    between atoms: C8_10  and  N3_19 
REMARK    8  A    between atoms: C9_11  and  O4_18 
REMARK    9  A    between atoms: C10_12  and  O3_17 
REMARK   10  A    between atoms: C11_13  and  C12_15 
REMARK   11  A    between atoms: C12_15  and  N2_16 
REMARK   12  A    between atoms: O5_20  and  C13_21 
REMARK   13  A    between atoms: C14_22  and  O12_40 
REMARK   14  A    between atoms: C15_23  and  O8_28 
REMARK   15  A    between atoms: C16_24  and  C17_26 
REMARK   16  A    between atoms: C17_26  and  O7_27 
REMARK   17  A    between atoms: O8_28  and  C18_29 
REMARK   18  A    between atoms: C19_30  and  N5_39 
REMARK   19  A    between atoms: C20_31  and  O11_38 
REMARK   20  A    between atoms: C21_32  and  O10_37 
REMARK   21  A    between atoms: C22_33  and  C23_35 
REMARK   22  A    between atoms: C23_35  and  N4_36 
ROOT
HETATM    1  C1  NEO     1     -46.068  -2.772  32.051  1.00  0.00     0.076 C 
HETATM    2  C2  NEO     1     -46.471  -4.237  32.278  1.00  0.00     0.251 C 
HETATM    3  C3  NEO     1     -45.481  -4.930  33.241  1.00  0.00     0.182 C 
HETATM    4  C4  NEO     1     -45.406  -4.167  34.580  1.00  0.00     0.186 C 
HETATM    5  C5  NEO     1     -44.983  -2.697  34.360  1.00  0.00     0.189 C 
HETATM    6  C6  NEO     1     -45.973  -2.001  33.383  1.00  0.00     0.251 C 
ENDROOT
BRANCH   4   7
HETATM    7  O5  NEO     1     -44.447  -4.801  35.417  1.00  0.00    -0.348 OA
BRANCH   7   8
HETATM    8  C13 NEO     1     -43.338  -5.286  34.678  1.00  0.00     0.292 C 
HETATM    9  C14 NEO     1     -42.044  -4.893  35.374  1.00  0.00     0.205 C 
HETATM   10  C15 NEO     1     -41.095  -5.979  34.925  1.00  0.00     0.189 C 
HETATM   11  C16 NEO     1     -42.050  -7.168  34.742  1.00  0.00     0.180 C 
HETATM   12  O6  NEO     1     -43.380  -6.695  34.631  1.00  0.00    -0.348 OA
BRANCH   9  13
HETATM   13  O12 NEO     1     -41.602  -3.592  35.060  1.00  0.00    -0.388 OA
HETATM   14  H43 NEO     1     -40.688  -3.464  35.426  1.00  0.00     0.210 HD
ENDBRANCH   9  13
BRANCH  10  15
HETATM   15  O8  NEO     1     -40.535  -5.662  33.657  1.00  0.00    -0.348 OA
BRANCH  15  16
HETATM   16  C18 NEO     1     -40.383  -6.812  32.852  1.00  0.00     0.296 C 
HETATM   17  C19 NEO     1     -38.887  -7.207  32.835  1.00  0.00     0.303 C 
HETATM   18  C20 NEO     1     -38.652  -8.396  31.876  1.00  0.00     0.187 C 
HETATM   19  C21 NEO     1     -39.350  -8.172  30.517  1.00  0.00     0.179 C 
HETATM   20  C22 NEO     1     -40.809  -7.707  30.742  1.00  0.00     0.183 C 
HETATM   21  O9  NEO     1     -40.830  -6.532  31.534  1.00  0.00    -0.349 OA
BRANCH  17  22
HETATM   22  N5  NEO     1     -38.026  -6.075  32.472  1.00  0.00     0.090 N 
HETATM   23  H41 NEO     1     -38.330  -5.666  31.559  1.00  0.00     0.313 HD
HETATM   24  H42 NEO     1     -38.135  -5.325  33.194  1.00  0.00     0.313 HD
ENDBRANCH  17  22
BRANCH  18  25
HETATM   25  O11 NEO     1     -39.144  -9.578  32.453  1.00  0.00    -0.391 OA
HETATM   26  H40 NEO     1     -39.751  -9.311  33.191  1.00  0.00     0.210 HD
ENDBRANCH  18  25
BRANCH  19  27
HETATM   27  O10 NEO     1     -38.653  -7.215  29.761  1.00  0.00    -0.390 OA
HETATM   28  H39 NEO     1     -38.333  -6.525  30.397  1.00  0.00     0.210 HD
ENDBRANCH  19  27
BRANCH  20  29
HETATM   29  C23 NEO     1     -41.544  -7.409  29.417  1.00  0.00     0.301 C 
BRANCH  29  30
HETATM   30  N4  NEO     1     -41.389  -6.021  28.985  1.00  0.00     0.080 N 
HETATM   31  H37 NEO     1     -40.477  -5.914  28.486  1.00  0.00     0.312 HD
HETATM   32  H38 NEO     1     -42.159  -5.770  28.323  1.00  0.00     0.312 HD
ENDBRANCH  29  30
ENDBRANCH  20  29
ENDBRANCH  15  16
ENDBRANCH  10  15
BRANCH  11  33
HETATM   33  C17 NEO     1     -41.955  -8.184  35.895  1.00  0.00     0.198 C 
BRANCH  33  34
HETATM   34  O7  NEO     1     -42.971  -7.974  36.840  1.00  0.00    -0.398 OA
HETATM   35  H29 NEO     1     -43.758  -7.626  36.345  1.00  0.00     0.209 HD
ENDBRANCH  33  34
ENDBRANCH  11  33
ENDBRANCH   7   8
ENDBRANCH   4   7
BRANCH   3  36
HETATM   36  O13 NEO     1     -45.913  -6.247  33.472  1.00  0.00    -0.391 OA
HETATM   37  H44 NEO     1     -45.555  -6.521  34.357  1.00  0.00     0.210 HD
ENDBRANCH   3  36
BRANCH   5  38
HETATM   38  O1  NEO     1     -45.015  -2.064  35.629  1.00  0.00    -0.349 OA
BRANCH  38  39
HETATM   39  C7  NEO     1     -43.846  -1.302  35.914  1.00  0.00     0.296 C 
HETATM   40  C8  NEO     1     -43.416  -1.504  37.378  1.00  0.00     0.303 C 
HETATM   41  C9  NEO     1     -44.493  -0.931  38.320  1.00  0.00     0.187 C 
HETATM   42  C10 NEO     1     -44.852   0.517  37.925  1.00  0.00     0.179 C 
HETATM   43  C11 NEO     1     -45.166   0.590  36.408  1.00  0.00     0.183 C 
HETATM   44  O2  NEO     1     -44.074   0.075  35.656  1.00  0.00    -0.349 OA
BRANCH  40  45
HETATM   45  N3  NEO     1     -43.201  -2.927  37.650  1.00  0.00     0.090 N 
HETATM   46  H21 NEO     1     -44.134  -3.394  37.738  1.00  0.00     0.313 HD
HETATM   47  H22 NEO     1     -42.747  -3.355  36.811  1.00  0.00     0.313 HD
ENDBRANCH  40  45
BRANCH  41  48
HETATM   48  O4  NEO     1     -44.071  -0.993  39.661  1.00  0.00    -0.391 OA
HETATM   49  H20 NEO     1     -43.590  -1.852  39.786  1.00  0.00     0.210 HD
ENDBRANCH  41  48
BRANCH  42  50
HETATM   50  O3  NEO     1     -45.969   0.928  38.670  1.00  0.00    -0.390 OA
HETATM   51  H19 NEO     1     -46.774   0.711  38.130  1.00  0.00     0.210 HD
ENDBRANCH  42  50
BRANCH  43  52
HETATM   52  C12 NEO     1     -45.398   2.044  35.933  1.00  0.00     0.301 C 
BRANCH  52  53
HETATM   53  N2  NEO     1     -45.006   3.048  36.923  1.00  0.00     0.080 N 
HETATM   54  H17 NEO     1     -45.671   3.851  36.894  1.00  0.00     0.312 HD
HETATM   55  H18 NEO     1     -44.043   3.401  36.714  1.00  0.00     0.312 HD
ENDBRANCH  52  53
ENDBRANCH  43  52
ENDBRANCH  38  39
ENDBRANCH   5  38
BRANCH   2  56
HETATM   56  N6  NEO     1     -46.530  -4.930  30.987  1.00  0.00     0.085 N 
HETATM   57  H45 NEO     1     -45.821  -4.514  30.338  1.00  0.00     0.313 HD
HETATM   58  H46 NEO     1     -46.275  -5.937  31.124  1.00  0.00     0.313 HD
ENDBRANCH   2  56
BRANCH   6  59
HETATM   59  N1  NEO     1     -45.571  -0.615  33.132  1.00  0.00     0.085 N 
HETATM   60  H8  NEO     1     -46.369  -0.096  32.700  1.00  0.00     0.313 HD
HETATM   61  H9  NEO     1     -45.352  -0.153  34.045  1.00  0.00     0.313 HD
ENDBRANCH   6  59
TORSDOF 22
ENDMDL
