MODEL 1
REMARK VINA RESULT:    -8.908      0.000      0.000
REMARK INTER + INTRA:         -10.522
REMARK INTER:                 -10.209
REMARK INTRA:                  -0.312
REMARK UNBOUND:                -0.312
REMARK  4 active torsions:
REMARK  status: ('A' for Active; 'I' for Inactive)
REMARK    1  A    between atoms: C3_3  and  O5_20 
REMARK    2  A    between atoms: C6_6  and  C7_7 
REMARK    3  A    between atoms: C11_12  and  O4_19 
REMARK    4  A    between atoms: C13_14  and  O3_18 
ROOT
HETATM    1  C7  API     1      31.931  72.649  85.784  1.00  0.00     0.090 A 
HETATM    2  C8  API     1      31.812  72.946  87.086  1.00  0.00     0.094 A 
HETATM    3  C9  API     1      30.474  73.200  87.639  1.00  0.00     0.190 A 
HETATM    4  O1  API     1      30.308  73.481  88.820  1.00  0.00    -0.287 OA
HETATM    5  C10 API     1      29.338  73.103  86.715  1.00  0.00     0.081 A 
HETATM    6  C11 API     1      28.024  73.325  87.138  1.00  0.00     0.085 A 
HETATM    7  C12 API     1      26.969  73.224  86.234  1.00  0.00     0.074 A 
HETATM    8  C13 API     1      27.240  72.898  84.908  1.00  0.00     0.071 A 
HETATM    9  C14 API     1      28.545  72.674  84.475  1.00  0.00     0.075 A 
HETATM   10  C15 API     1      29.597  72.778  85.384  1.00  0.00     0.095 A 
HETATM   11  O2  API     1      30.862  72.545  84.906  1.00  0.00    -0.309 OA
ENDROOT
BRANCH   1  12
HETATM   12  C6  API     1      33.245  72.374  85.169  1.00  0.00    -0.002 A 
HETATM   13  C1  API     1      34.422  72.592  85.905  1.00  0.00     0.017 A 
HETATM   14  C2  API     1      35.677  72.329  85.346  1.00  0.00     0.037 A 
HETATM   15  C3  API     1      35.758  71.840  84.048  1.00  0.00     0.065 A 
HETATM   16  C4  API     1      34.608  71.606  83.304  1.00  0.00     0.037 A 
HETATM   17  C5  API     1      33.355  71.869  83.864  1.00  0.00     0.017 A 
BRANCH  15  18
HETATM   18  O5  API     1      36.958  71.568  83.463  1.00  0.00    -0.361 OA
HETATM   19  H10 API     1      37.074  70.604  83.422  1.00  0.00     0.217 HD
ENDBRANCH  15  18
ENDBRANCH   1  12
BRANCH   6  20
HETATM   20  O4  API     1      27.702  73.647  88.429  1.00  0.00    -0.360 OA
HETATM   21  H9  API     1      26.841  73.222  88.646  1.00  0.00     0.217 HD
ENDBRANCH   6  20
BRANCH   8  22
HETATM   22  O3  API     1      26.241  72.788  83.987  1.00  0.00    -0.361 OA
HETATM   23  H8  API     1      25.400  73.040  84.405  1.00  0.00     0.217 HD
ENDBRANCH   8  22
TORSDOF 4
ENDMDL
