MODEL 1
REMARK VINA RESULT:    -9.385      0.000      0.000
REMARK INTER + INTRA:         -14.761
REMARK INTER:                 -13.225
REMARK INTRA:                  -1.536
REMARK UNBOUND:                -1.536
REMARK  10 active torsions:
REMARK  status: ('A' for Active; 'I' for Inactive)
REMARK    1  A    between atoms: C4_4  and  C7_7 
REMARK    2  A    between atoms: C11_12  and  O11_32 
REMARK    3  A    between atoms: C12_13  and  O10_31 
REMARK    4  A    between atoms: C13_14  and  O3_18 
REMARK    5  A    between atoms: O3_18  and  C16_19 
REMARK    6  A    between atoms: C17_20  and  O9_30 
REMARK    7  A    between atoms: C18_21  and  O8_29 
REMARK    8  A    between atoms: C19_22  and  O7_28 
REMARK    9  A    between atoms: C20_23  and  C21_25 
REMARK   10  A    between atoms: C21_25  and  O6_27 
ROOT
HETATM    1  C7  BAI     1      26.632  82.356 128.821  1.00  0.00     0.090 A 
HETATM    2  C8  BAI     1      26.303  83.379 129.625  1.00  0.00     0.094 A 
HETATM    3  C9  BAI     1      25.903  84.657 129.022  1.00  0.00     0.190 A 
HETATM    4  O1  BAI     1      25.589  85.627 129.702  1.00  0.00    -0.287 OA
HETATM    5  C10 BAI     1      25.893  84.732 127.559  1.00  0.00     0.084 A 
HETATM    6  C11 BAI     1      25.533  85.901 126.888  1.00  0.00     0.118 A 
HETATM    7  C12 BAI     1      25.539  85.935 125.492  1.00  0.00     0.134 A 
HETATM    8  C13 BAI     1      25.890  84.799 124.760  1.00  0.00     0.110 A 
HETATM    9  C14 BAI     1      26.273  83.638 125.439  1.00  0.00     0.078 A 
HETATM   10  C15 BAI     1      26.265  83.602 126.835  1.00  0.00     0.096 A 
HETATM   11  O2  BAI     1      26.638  82.426 127.435  1.00  0.00    -0.309 OA
ENDROOT
BRANCH   8  12
HETATM   12  O3  BAI     1      25.974  84.743 123.397  1.00  0.00    -0.315 OA
BRANCH  12  13
HETATM   13  C16 BAI     1      26.926  85.643 122.817  1.00  0.00     0.299 C 
HETATM   14  C17 BAI     1      27.827  84.841 121.850  1.00  0.00     0.205 C 
HETATM   15  C18 BAI     1      27.671  85.347 120.422  1.00  0.00     0.183 C 
HETATM   16  C19 BAI     1      26.191  85.425 120.062  1.00  0.00     0.189 C 
HETATM   17  C20 BAI     1      25.452  86.367 121.030  1.00  0.00     0.253 C 
HETATM   18  O4  BAI     1      26.257  86.732 122.159  1.00  0.00    -0.340 OA
BRANCH  14  19
HETATM   19  O9  BAI     1      29.221  84.934 122.198  1.00  0.00    -0.388 OA
HETATM   20  H16 BAI     1      29.256  85.585 122.931  1.00  0.00     0.210 HD
ENDBRANCH  14  19
BRANCH  15  21
HETATM   21  O8  BAI     1      28.331  84.452 119.508  1.00  0.00    -0.390 OA
HETATM   22  H15 BAI     1      28.346  83.590 119.971  1.00  0.00     0.210 HD
ENDBRANCH  15  21
BRANCH  16  23
HETATM   23  O7  BAI     1      26.086  85.902 118.709  1.00  0.00    -0.390 OA
HETATM   24  H14 BAI     1      25.496  85.261 118.261  1.00  0.00     0.210 HD
ENDBRANCH  16  23
BRANCH  17  25
HETATM   25  C21 BAI     1      24.060  85.854 121.427  1.00  0.00     0.172 C 
HETATM   26  O5  BAI     1      23.419  84.971 120.875  1.00  0.00    -0.648 OA
BRANCH  25  27
HETATM   27  O6  BAI     1      23.565  86.415 122.547  1.00  0.00    -0.774 OA
HETATM   28  H13 BAI     1      22.994  87.142 122.220  1.00  0.00     0.167 HD
ENDBRANCH  25  27
ENDBRANCH  17  25
ENDBRANCH  12  13
ENDBRANCH   8  12
BRANCH   7  29
HETATM   29  O10 BAI     1      25.207  87.117 124.879  1.00  0.00    -0.356 OA
HETATM   30  H17 BAI     1      25.727  87.790 125.374  1.00  0.00     0.218 HD
ENDBRANCH   7  29
BRANCH   6  31
HETATM   31  O11 BAI     1      25.174  87.062 127.530  1.00  0.00    -0.357 OA
HETATM   32  H18 BAI     1      24.424  87.461 127.027  1.00  0.00     0.217 HD
ENDBRANCH   6  31
BRANCH   1  33
HETATM   33  C4  BAI     1      27.053  81.049 129.361  1.00  0.00    -0.002 A 
HETATM   34  C3  BAI     1      26.718  80.649 130.665  1.00  0.00     0.014 A 
HETATM   35  C2  BAI     1      27.119  79.404 131.155  1.00  0.00     0.001 A 
HETATM   36  C1  BAI     1      27.854  78.539 130.349  1.00  0.00     0.000 A 
HETATM   37  C6  BAI     1      28.185  78.916 129.050  1.00  0.00     0.001 A 
HETATM   38  C5  BAI     1      27.784  80.161 128.558  1.00  0.00     0.014 A 
ENDBRANCH   1  33
TORSDOF 10
ENDMDL
