MODEL 1
REMARK VINA RESULT:    -8.384      0.000      0.000
REMARK INTER + INTRA:          -9.443
REMARK INTER:                  -9.364
REMARK INTRA:                  -0.078
REMARK UNBOUND:                -0.078
REMARK  2 active torsions:
REMARK  status: ('A' for Active; 'I' for Inactive)
REMARK    1  A    between atoms: O1_2  and  C2_3 
REMARK    2  A    between atoms: C3_4  and  O4_24 
ROOT
HETATM    1  C2  BER     1      24.143  84.991 120.456  1.00  0.00     0.102 A 
HETATM    2  C3  BER     1      25.270  85.130 121.289  1.00  0.00     0.114 A 
HETATM    3  C4  BER     1      25.210  84.732 122.651  1.00  0.00     0.026 A 
HETATM    4  C5  BER     1      26.284  84.900 123.532  1.00  0.00     0.106 A 
HETATM    5  N1  BER     1      26.222  84.520 124.830  1.00  0.00    -0.355 N 
HETATM    6  C6  BER     1      25.104  83.927 125.335  1.00  0.00     0.046 A 
HETATM    7  C7  BER     1      23.997  83.745 124.495  1.00  0.00     0.043 A 
HETATM    8  C8  BER     1      24.041  84.145 123.155  1.00  0.00    -0.019 A 
HETATM    9  C9  BER     1      22.939  83.975 122.309  1.00  0.00     0.015 A 
HETATM   10  C10 BER     1      22.990  84.398 120.978  1.00  0.00     0.040 A 
HETATM   11  C11 BER     1      25.135  83.553 126.764  1.00  0.00    -0.000 A 
HETATM   12  C12 BER     1      24.255  82.598 127.311  1.00  0.00     0.054 A 
HETATM   13  C13 BER     1      24.315  82.329 128.665  1.00  0.00     0.105 A 
HETATM   14  C14 BER     1      25.204  82.961 129.493  1.00  0.00     0.105 A 
HETATM   15  C15 BER     1      26.095  83.894 129.016  1.00  0.00     0.047 A 
HETATM   16  C16 BER     1      26.069  84.178 127.640  1.00  0.00    -0.041 A 
HETATM   17  C17 BER     1      27.027  85.182 127.062  1.00  0.00     0.060 C 
HETATM   18  C18 BER     1      27.430  84.720 125.673  1.00  0.00     0.133 C 
HETATM   19  O2  BER     1      25.094  82.554 130.784  1.00  0.00    -0.323 OA
HETATM   20  C19 BER     1      24.024  81.590 130.678  1.00  0.00     0.352 A 
HETATM   21  O3  BER     1      23.530  81.439 129.328  1.00  0.00    -0.323 OA
ENDROOT
BRANCH   1  22
HETATM   22  O1  BER     1      24.230  85.475 119.180  1.00  0.00    -0.353 OA
HETATM   23  C1  BER     1      24.075  84.564 118.097  1.00  0.00     0.210 C 
ENDBRANCH   1  22
BRANCH   2  24
HETATM   24  O4  BER     1      26.472  85.693 120.918  1.00  0.00    -0.352 OA
HETATM   25  C20 BER     1      27.354  84.879 120.144  1.00  0.00     0.210 C 
ENDBRANCH   2  24
TORSDOF 2
ENDMDL
