MODEL 1
REMARK VINA RESULT:    -8.749      0.000      0.000
REMARK INTER + INTRA:         -10.684
REMARK INTER:                 -10.539
REMARK INTRA:                  -0.145
REMARK UNBOUND:                -0.145
REMARK  6 active torsions:
REMARK  status: ('A' for Active; 'I' for Inactive)
REMARK    1  A    between atoms: C2_2  and  O6_21 
REMARK    2  A    between atoms: C3_3  and  C10_13 
REMARK    3  A    between atoms: C6_7  and  O3_12 
REMARK    4  A    between atoms: C8_9  and  O2_11 
REMARK    5  A    between atoms: C12_15  and  O5_20 
REMARK    6  A    between atoms: C13_16  and  O4_19 
ROOT
HETATM    1  C1  CAT     1      29.829  73.447  88.489  1.00  0.00     0.079 C 
HETATM    2  C2  CAT     1      28.518  73.831  89.171  1.00  0.00     0.156 C 
HETATM    3  C3  CAT     1      27.353  73.269  88.335  1.00  0.00     0.191 C 
HETATM    4  O1  CAT     1      27.338  73.820  87.012  1.00  0.00    -0.338 OA
HETATM    5  C4  CAT     1      28.541  73.808  86.360  1.00  0.00     0.081 A 
HETATM    6  C5  CAT     1      28.474  74.021  84.982  1.00  0.00     0.074 A 
HETATM    7  C6  CAT     1      29.639  74.026  84.227  1.00  0.00     0.071 A 
HETATM    8  C7  CAT     1      30.873  73.823  84.831  1.00  0.00     0.073 A 
HETATM    9  C8  CAT     1      30.934  73.621  86.209  1.00  0.00     0.077 A 
HETATM   10  C9  CAT     1      29.776  73.633  87.001  1.00  0.00     0.011 A 
ENDROOT
BRANCH   3  11
HETATM   11  C10 CAT     1      26.008  73.584  88.976  1.00  0.00    -0.024 A 
HETATM   12  C11 CAT     1      25.846  74.707  89.804  1.00  0.00     0.049 A 
HETATM   13  C12 CAT     1      24.617  74.954  90.400  1.00  0.00     0.099 A 
HETATM   14  C13 CAT     1      23.536  74.104  90.185  1.00  0.00     0.098 A 
HETATM   15  C14 CAT     1      23.672  72.989  89.370  1.00  0.00     0.040 A 
HETATM   16  C15 CAT     1      24.908  72.729  88.768  1.00  0.00     0.013 A 
BRANCH  13  17
HETATM   17  O5  CAT     1      24.478  76.045  91.208  1.00  0.00    -0.358 OA
HETATM   18  H13 CAT     1      24.990  75.822  92.011  1.00  0.00     0.217 HD
ENDBRANCH  13  17
BRANCH  14  19
HETATM   19  O4  CAT     1      22.355  74.410  90.803  1.00  0.00    -0.358 OA
HETATM   20  H12 CAT     1      22.297  73.887  91.621  1.00  0.00     0.217 HD
ENDBRANCH  14  19
ENDBRANCH   3  11
BRANCH   2  21
HETATM   21  O6  CAT     1      28.544  73.302  90.501  1.00  0.00    -0.392 OA
HETATM   22  H14 CAT     1      29.453  72.990  90.665  1.00  0.00     0.210 HD
ENDBRANCH   2  21
BRANCH   9  23
HETATM   23  O2  CAT     1      32.185  73.415  86.722  1.00  0.00    -0.360 OA
HETATM   24  H7  CAT     1      32.122  73.179  87.660  1.00  0.00     0.217 HD
ENDBRANCH   9  23
BRANCH   7  25
HETATM   25  O3  CAT     1      29.530  74.232  82.884  1.00  0.00    -0.361 OA
HETATM   26  H8  CAT     1      28.693  73.844  82.579  1.00  0.00     0.217 HD
ENDBRANCH   7  25
TORSDOF 6
ENDMDL
