MODEL 1
REMARK VINA RESULT:    -9.925      0.000      0.000
REMARK INTER + INTRA:         -15.658
REMARK INTER:                 -15.148
REMARK INTRA:                  -0.511
REMARK UNBOUND:                -0.511
REMARK  10 active torsions:
REMARK  status: ('A' for Active; 'I' for Inactive)
REMARK    1  A    between atoms: O1_2  and  C2_3 
REMARK    2  A    between atoms: C3_4  and  O6_27 
REMARK    3  A    between atoms: C6_7  and  C8_9 
REMARK    4  A    between atoms: C9_10  and  C10_11 
REMARK    5  A    between atoms: C10_11  and  C11_13 
REMARK    6  A    between atoms: C11_13  and  C12_14 
REMARK    7  A    between atoms: C12_14  and  C13_16 
REMARK    8  A    between atoms: C14_17  and  C15_18 
REMARK    9  A    between atoms: C17_20  and  O5_25 
REMARK   10  A    between atoms: C18_21  and  O4_24 
ROOT
HETATM    1  C11 CUR     1      40.110  64.352  60.935  1.00  0.00     0.165 C 
ENDROOT
BRANCH   1   2
HETATM    2  C10 CUR     1      39.677  64.306  62.379  1.00  0.00     0.156 C 
HETATM    3  O2  CUR     1      40.419  64.614  63.311  1.00  0.00    -0.293 OA
BRANCH   2   4
HETATM    4  C9  CUR     1      38.301  63.841  62.719  1.00  0.00     0.051 C 
HETATM    5  C8  CUR     1      37.643  64.157  63.843  1.00  0.00     0.015 C 
BRANCH   5   6
HETATM    6  C6  CUR     1      36.280  63.684  64.133  1.00  0.00    -0.033 A 
HETATM    7  C5  CUR     1      36.040  62.595  64.982  1.00  0.00     0.014 A 
HETATM    8  C4  CUR     1      34.734  62.189  65.260  1.00  0.00     0.040 A 
HETATM    9  C3  CUR     1      33.663  62.880  64.696  1.00  0.00     0.099 A 
HETATM   10  C2  CUR     1      33.875  63.981  63.856  1.00  0.00     0.102 A 
HETATM   11  C7  CUR     1      35.190  64.380  63.586  1.00  0.00     0.051 A 
BRANCH   9  12
HETATM   12  O6  CUR     1      32.380  62.484  64.967  1.00  0.00    -0.358 OA
HETATM   13  H20 CUR     1      32.325  62.187  65.888  1.00  0.00     0.217 HD
ENDBRANCH   9  12
BRANCH  10  14
HETATM   14  O1  CUR     1      32.751  64.590  63.362  1.00  0.00    -0.353 OA
HETATM   15  C1  CUR     1      32.498  65.929  63.758  1.00  0.00     0.210 C 
ENDBRANCH  10  14
ENDBRANCH   5   6
ENDBRANCH   2   4
ENDBRANCH   1   2
BRANCH   1  16
HETATM   16  C12 CUR     1      40.568  65.702  60.441  1.00  0.00     0.156 C 
HETATM   17  O3  CUR     1      40.285  66.729  61.058  1.00  0.00    -0.293 OA
BRANCH  16  18
HETATM   18  C13 CUR     1      41.299  65.760  59.142  1.00  0.00     0.051 C 
HETATM   19  C14 CUR     1      42.279  64.886  58.874  1.00  0.00     0.015 C 
BRANCH  19  20
HETATM   20  C15 CUR     1      43.027  64.883  57.612  1.00  0.00    -0.033 A 
HETATM   21  C16 CUR     1      42.399  64.610  56.384  1.00  0.00     0.051 A 
HETATM   22  C17 CUR     1      43.139  64.592  55.199  1.00  0.00     0.102 A 
HETATM   23  C18 CUR     1      44.515  64.842  55.261  1.00  0.00     0.099 A 
HETATM   24  C19 CUR     1      45.156  65.097  56.466  1.00  0.00     0.040 A 
HETATM   25  C20 CUR     1      44.410  65.109  57.645  1.00  0.00     0.014 A 
BRANCH  22  26
HETATM   26  O5  CUR     1      42.651  64.347  53.942  1.00  0.00    -0.353 OA
HETATM   27  C21 CUR     1      42.458  62.982  53.588  1.00  0.00     0.210 C 
ENDBRANCH  22  26
BRANCH  23  28
HETATM   28  O4  CUR     1      45.267  64.834  54.118  1.00  0.00    -0.358 OA
HETATM   29  H16 CUR     1      45.352  65.775  53.867  1.00  0.00     0.217 HD
ENDBRANCH  23  28
ENDBRANCH  19  20
ENDBRANCH  16  18
ENDBRANCH   1  16
TORSDOF 10
ENDMDL
