MODEL 1
REMARK VINA RESULT:    -6.652      0.000      0.000
REMARK INTER + INTRA:          -7.872
REMARK INTER:                  -7.819
REMARK INTRA:                  -0.053
REMARK UNBOUND:                -0.053
REMARK  5 active torsions:
REMARK  status: ('A' for Active; 'I' for Inactive)
REMARK    1  A    between atoms: C2_2  and  C7_10 
REMARK    2  A    between atoms: C4_4  and  O3_9 
REMARK    3  A    between atoms: C5_5  and  O2_8 
REMARK    4  A    between atoms: C6_6  and  O1_7 
REMARK    5  A    between atoms: C7_10  and  O5_12 
ROOT
HETATM    1  C1  GAL     1      19.109  90.141 112.115  1.00  0.00     0.057 A 
HETATM    2  C2  GAL     1      19.101  90.308 113.511  1.00  0.00     0.043 A 
HETATM    3  C3  GAL     1      18.136  91.125 114.121  1.00  0.00     0.057 A 
HETATM    4  C4  GAL     1      17.191  91.766 113.332  1.00  0.00     0.102 A 
HETATM    5  C5  GAL     1      17.196  91.602 111.953  1.00  0.00     0.132 A 
HETATM    6  C6  GAL     1      18.150  90.793 111.346  1.00  0.00     0.102 A 
ENDROOT
BRANCH   2   7
HETATM    7  C7  GAL     1      20.096  89.638 114.382  1.00  0.00     0.176 C 
HETATM    8  O4  GAL     1      20.452  88.478 114.305  1.00  0.00    -0.646 OA
BRANCH   7   9
HETATM    9  O5  GAL     1      20.602  90.460 115.318  1.00  0.00    -0.773 OA
HETATM   10  H6  GAL     1      19.958  90.391 116.054  1.00  0.00     0.167 HD
ENDBRANCH   7   9
ENDBRANCH   2   7
BRANCH   6  11
HETATM   11  O1  GAL     1      18.105  90.670 109.985  1.00  0.00    -0.358 OA
HETATM   12  H3  GAL     1      17.578  91.406 109.625  1.00  0.00     0.217 HD
ENDBRANCH   6  11
BRANCH   4  13
HETATM   13  O3  GAL     1      16.252  92.561 113.922  1.00  0.00    -0.358 OA
HETATM   14  H5  GAL     1      15.523  91.953 114.160  1.00  0.00     0.217 HD
ENDBRANCH   4  13
BRANCH   5  15
HETATM   15  O2  GAL     1      16.251  92.246 111.203  1.00  0.00    -0.356 OA
HETATM   16  H4  GAL     1      16.712  93.041 110.862  1.00  0.00     0.218 HD
ENDBRANCH   5  15
TORSDOF 5
ENDMDL
