MODEL 1
REMARK VINA RESULT:   -10.073      0.000      0.000
REMARK INTER + INTRA:         -18.785
REMARK INTER:                 -16.550
REMARK INTRA:                  -2.235
REMARK UNBOUND:                -2.235
REMARK  15 active torsions:
REMARK  status: ('A' for Active; 'I' for Inactive)
REMARK    1  A    between atoms: C5_5  and  C42_56 
REMARK    2  A    between atoms: C15_16  and  O2_29 
REMARK    3  A    between atoms: O2_29  and  C28_30 
REMARK    4  A    between atoms: C29_31  and  O8_41 
REMARK    5  A    between atoms: C30_32  and  O7_40 
REMARK    6  A    between atoms: C31_33  and  O6_39 
REMARK    7  A    between atoms: C32_34  and  C33_36 
REMARK    8  A    between atoms: C33_36  and  O5_38 
REMARK    9  A    between atoms: O8_41  and  C34_42 
REMARK   10  A    between atoms: C35_43  and  O14_53 
REMARK   11  A    between atoms: C36_44  and  O13_52 
REMARK   12  A    between atoms: C37_45  and  O12_51 
REMARK   13  A    between atoms: C38_46  and  C39_48 
REMARK   14  A    between atoms: C39_48  and  O11_50 
REMARK   15  A    between atoms: C42_56  and  O16_58 
ROOT
HETATM    1  C1  GRA     1      39.398  74.608  63.703  1.00  0.00     0.016 C 
HETATM    2  C2  GRA     1      40.672  73.734  63.508  1.00  0.00    -0.036 C 
HETATM    3  C3  GRA     1      40.221  72.279  63.221  1.00  0.00     0.011 C 
HETATM    4  C4  GRA     1      39.546  71.583  64.401  1.00  0.00     0.021 C 
HETATM    5  C5  GRA     1      40.391  71.607  65.689  1.00  0.00     0.042 C 
HETATM    6  C6  GRA     1      40.848  73.058  65.980  1.00  0.00     0.030 C 
HETATM    7  C7  GRA     1      41.548  73.808  64.810  1.00  0.00     0.025 C 
HETATM    8  C8  GRA     1      43.063  73.553  64.637  1.00  0.00    -0.062 C 
HETATM    9  C9  GRA     1      43.842  73.140  65.658  1.00  0.00     0.054 C 
HETATM   10  C10 GRA     1      45.331  73.113  65.621  1.00  0.00     0.155 C 
HETATM   11  O1  GRA     1      45.903  72.596  66.579  1.00  0.00    -0.293 OA
HETATM   12  C11 GRA     1      46.061  73.688  64.397  1.00  0.00     0.077 C 
HETATM   13  C12 GRA     1      47.575  74.120  64.624  1.00  0.00    -0.028 C 
HETATM   14  C13 GRA     1      48.409  72.885  65.082  1.00  0.00     0.013 C 
HETATM   15  C14 GRA     1      49.918  73.098  65.056  1.00  0.00     0.034 C 
HETATM   16  C15 GRA     1      50.441  73.533  63.689  1.00  0.00     0.133 C 
HETATM   17  C16 GRA     1      49.709  74.805  63.153  1.00  0.00    -0.017 C 
HETATM   18  C17 GRA     1      48.153  74.557  63.221  1.00  0.00     0.005 C 
HETATM   19  C18 GRA     1      47.296  75.663  62.576  1.00  0.00     0.007 C 
HETATM   20  C19 GRA     1      45.852  75.195  62.360  1.00  0.00     0.011 C 
HETATM   21  C20 GRA     1      45.132  74.721  63.650  1.00  0.00    -0.021 C 
HETATM   22  C21 GRA     1      43.723  73.988  63.317  1.00  0.00    -0.012 C 
HETATM   23  C22 GRA     1      42.756  74.926  62.545  1.00  0.00     0.015 C 
HETATM   24  C23 GRA     1      41.396  74.298  62.251  1.00  0.00     0.011 C 
HETATM   25  C24 GRA     1      43.934  72.706  62.454  1.00  0.00     0.021 C 
HETATM   26  C25 GRA     1      44.863  75.998  64.507  1.00  0.00     0.017 C 
HETATM   27  C26 GRA     1      50.142  74.986  61.671  1.00  0.00     0.018 C 
HETATM   28  C27 GRA     1      50.165  76.077  63.894  1.00  0.00     0.018 C 
HETATM   29  C40 GRA     1      47.685  75.204  65.721  1.00  0.00     0.016 C 
HETATM   30  C41 GRA     1      41.574  70.632  65.590  1.00  0.00     0.026 C 
ENDROOT
BRANCH  16  31
HETATM   31  O2  GRA     1      51.854  73.779  63.792  1.00  0.00    -0.352 OA
BRANCH  31  32
HETATM   32  C28 GRA     1      52.409  73.365  65.056  1.00  0.00     0.293 C 
HETATM   33  C29 GRA     1      53.538  74.326  65.476  1.00  0.00     0.211 C 
HETATM   34  C30 GRA     1      54.603  74.368  64.368  1.00  0.00     0.183 C 
HETATM   35  C31 GRA     1      54.769  73.016  63.651  1.00  0.00     0.189 C 
HETATM   36  C32 GRA     1      54.210  71.842  64.469  1.00  0.00     0.253 C 
HETATM   37  O3  GRA     1      52.856  72.018  64.903  1.00  0.00    -0.340 OA
BRANCH  33  38
HETATM   38  O8  GRA     1      53.057  75.671  65.674  1.00  0.00    -0.346 OA
BRANCH  38  39
HETATM   39  C34 GRA     1      53.431  76.216  66.948  1.00  0.00     0.293 C 
HETATM   40  C35 GRA     1      52.445  75.640  67.974  1.00  0.00     0.204 C 
HETATM   41  C36 GRA     1      52.686  76.286  69.341  1.00  0.00     0.183 C 
HETATM   42  C37 GRA     1      54.144  76.728  69.544  1.00  0.00     0.189 C 
HETATM   43  C38 GRA     1      55.127  75.954  68.651  1.00  0.00     0.253 C 
HETATM   44  O9  GRA     1      54.769  75.860  67.265  1.00  0.00    -0.340 OA
BRANCH  40  45
HETATM   45  O14 GRA     1      51.078  75.858  67.590  1.00  0.00    -0.388 OA
HETATM   46  H55 GRA     1      50.606  76.027  68.431  1.00  0.00     0.210 HD
ENDBRANCH  40  45
BRANCH  41  47
HETATM   47  O13 GRA     1      52.302  75.371  70.374  1.00  0.00    -0.390 OA
HETATM   48  H54 GRA     1      53.120  74.900  70.632  1.00  0.00     0.210 HD
ENDBRANCH  41  47
BRANCH  42  49
HETATM   49  O12 GRA     1      54.250  78.127  69.216  1.00  0.00    -0.390 OA
HETATM   50  H53 GRA     1      54.109  78.627  70.041  1.00  0.00     0.210 HD
ENDBRANCH  42  49
BRANCH  43  51
HETATM   51  C39 GRA     1      55.424  74.608  69.316  1.00  0.00     0.172 C 
HETATM   52  O10 GRA     1      56.316  74.397  70.124  1.00  0.00    -0.648 OA
BRANCH  51  53
HETATM   53  O11 GRA     1      54.580  73.620  68.963  1.00  0.00    -0.774 OA
HETATM   54  H52 GRA     1      54.199  73.290  69.805  1.00  0.00     0.167 HD
ENDBRANCH  51  53
ENDBRANCH  43  51
ENDBRANCH  38  39
ENDBRANCH  33  38
BRANCH  34  55
HETATM   55  O7  GRA     1      55.855  74.759  64.960  1.00  0.00    -0.390 OA
HETATM   56  H46 GRA     1      55.639  75.314  65.733  1.00  0.00     0.210 HD
ENDBRANCH  34  55
BRANCH  35  57
HETATM   57  O6  GRA     1      54.101  73.073  62.378  1.00  0.00    -0.390 OA
HETATM   58  H45 GRA     1      53.622  73.929  62.353  1.00  0.00     0.210 HD
ENDBRANCH  35  57
BRANCH  36  59
HETATM   59  C33 GRA     1      55.135  71.516  65.642  1.00  0.00     0.172 C 
HETATM   60  O4  GRA     1      56.343  71.690  65.690  1.00  0.00    -0.648 OA
BRANCH  59  61
HETATM   61  O5  GRA     1      54.488  71.007  66.710  1.00  0.00    -0.774 OA
HETATM   62  H44 GRA     1      53.840  70.382  66.317  1.00  0.00     0.167 HD
ENDBRANCH  59  61
ENDBRANCH  36  59
ENDBRANCH  31  32
ENDBRANCH  16  31
BRANCH   5  63
HETATM   63  C42 GRA     1      39.532  71.137  66.865  1.00  0.00     0.148 C 
HETATM   64  O15 GRA     1      38.493  71.642  67.257  1.00  0.00    -0.649 OA
BRANCH  63  65
HETATM   65  O16 GRA     1      40.048  70.079  67.521  1.00  0.00    -0.776 OA
HETATM   66  H62 GRA     1      40.959  70.363  67.747  1.00  0.00     0.167 HD
ENDBRANCH  63  65
ENDBRANCH   5  63
TORSDOF 15
ENDMDL
