MODEL 1
REMARK VINA RESULT:    -8.399      0.000      0.000
REMARK INTER + INTRA:         -12.524
REMARK INTER:                 -11.345
REMARK INTRA:                  -1.179
REMARK UNBOUND:                -1.179
REMARK  10 active torsions:
REMARK  status: ('A' for Active; 'I' for Inactive)
REMARK    1  A    between atoms: C5_5  and  O2_8 
REMARK    2  A    between atoms: C6_6  and  O1_7 
REMARK    3  A    between atoms: C10_14  and  O11_30 
REMARK    4  A    between atoms: C11_15  and  C14_19 
REMARK    5  A    between atoms: C12_16  and  O5_18 
REMARK    6  A    between atoms: C15_20  and  O10_29 
REMARK    7  A    between atoms: C16_21  and  O9_28 
REMARK    8  A    between atoms: C17_22  and  O8_27 
REMARK    9  A    between atoms: C18_23  and  C19_25 
REMARK   10  A    between atoms: C19_25  and  O7_26 
ROOT
HETATM    1  C1  MAN     1      23.532  71.661  91.687  1.00  0.00     0.057 A 
HETATM    2  C2  MAN     1      23.784  70.863  90.567  1.00  0.00     0.052 A 
HETATM    3  C3  MAN     1      23.463  71.306  89.282  1.00  0.00     0.093 A 
HETATM    4  C4  MAN     1      22.870  72.558  89.108  1.00  0.00     0.077 A 
HETATM    5  C5  MAN     1      22.605  73.344  90.223  1.00  0.00     0.101 A 
HETATM    6  C6  MAN     1      22.957  72.910  91.499  1.00  0.00     0.099 A 
HETATM    7  O3  MAN     1      23.691  70.572  88.144  1.00  0.00    -0.309 OA
HETATM    8  C7  MAN     1      24.270  69.333  88.272  1.00  0.00     0.095 A 
HETATM    9  C8  MAN     1      24.642  68.764  89.486  1.00  0.00     0.083 A 
HETATM   10  C9  MAN     1      24.402  69.539  90.713  1.00  0.00     0.200 A 
HETATM   11  O4  MAN     1      24.708  69.082  91.808  1.00  0.00    -0.286 OA
HETATM   12  C10 MAN     1      25.236  67.490  89.524  1.00  0.00     0.094 A 
HETATM   13  C11 MAN     1      25.435  66.756  88.342  1.00  0.00     0.041 A 
HETATM   14  C12 MAN     1      25.079  67.371  87.127  1.00  0.00     0.080 A 
HETATM   15  C13 MAN     1      24.497  68.639  87.085  1.00  0.00     0.075 A 
ENDROOT
BRANCH  13  16
HETATM   16  C14 MAN     1      26.042  65.362  88.309  1.00  0.00     0.192 C 
HETATM   17  C15 MAN     1      27.589  65.408  88.149  1.00  0.00     0.183 C 
HETATM   18  C16 MAN     1      28.311  64.985  89.436  1.00  0.00     0.181 C 
HETATM   19  C17 MAN     1      27.801  63.620  89.944  1.00  0.00     0.180 C 
HETATM   20  C18 MAN     1      26.344  63.350  89.519  1.00  0.00     0.177 C 
HETATM   21  O6  MAN     1      25.617  64.574  89.437  1.00  0.00    -0.368 OA
BRANCH  17  22
HETATM   22  O10 MAN     1      27.992  64.498  87.103  1.00  0.00    -0.390 OA
HETATM   23  H17 MAN     1      28.966  64.438  87.156  1.00  0.00     0.210 HD
ENDBRANCH  17  22
BRANCH  18  24
HETATM   24  O9  MAN     1      28.179  65.987  90.448  1.00  0.00    -0.390 OA
HETATM   25  H16 MAN     1      28.704  65.702  91.227  1.00  0.00     0.210 HD
ENDBRANCH  18  24
BRANCH  19  26
HETATM   26  O8  MAN     1      28.618  62.544  89.454  1.00  0.00    -0.390 OA
HETATM   27  H15 MAN     1      29.238  62.316  90.177  1.00  0.00     0.210 HD
ENDBRANCH  19  26
BRANCH  20  28
HETATM   28  C19 MAN     1      25.660  62.400  90.512  1.00  0.00     0.198 C 
BRANCH  28  29
HETATM   29  O7  MAN     1      26.562  61.932  91.512  1.00  0.00    -0.398 OA
HETATM   30  H14 MAN     1      26.105  61.234  92.022  1.00  0.00     0.209 HD
ENDBRANCH  28  29
ENDBRANCH  20  28
ENDBRANCH  13  16
BRANCH  12  31
HETATM   31  O11 MAN     1      25.666  66.950  90.712  1.00  0.00    -0.359 OA
HETATM   32  H18 MAN     1      25.603  67.644  91.411  1.00  0.00     0.217 HD
ENDBRANCH  12  31
BRANCH  14  33
HETATM   33  O5  MAN     1      25.336  66.710  85.956  1.00  0.00    -0.360 OA
HETATM   34  H6  MAN     1      26.249  66.901  85.674  1.00  0.00     0.217 HD
ENDBRANCH  14  33
BRANCH   6  35
HETATM   35  O1  MAN     1      22.765  73.716  92.581  1.00  0.00    -0.358 OA
HETATM   36  H3  MAN     1      23.094  73.225  93.357  1.00  0.00     0.217 HD
ENDBRANCH   6  35
BRANCH   5  37
HETATM   37  O2  MAN     1      21.968  74.537  90.047  1.00  0.00    -0.358 OA
HETATM   38  H4  MAN     1      22.664  75.206  89.903  1.00  0.00     0.217 HD
ENDBRANCH   5  37
TORSDOF 10
ENDMDL
