MODEL 1
REMARK VINA RESULT:   -10.409      0.000      0.000
REMARK INTER + INTRA:         -18.172
REMARK INTER:                 -16.494
REMARK INTRA:                  -1.678
REMARK UNBOUND:                -1.678
REMARK  14 active torsions:
REMARK  status: ('A' for Active; 'I' for Inactive)
REMARK    1  A    between atoms: C3_3  and  O14_41 
REMARK    2  A    between atoms: C4_4  and  O13_40 
REMARK    3  A    between atoms: C5_5  and  O12_39 
REMARK    4  A    between atoms: C6_6  and  O2_8 
REMARK    5  A    between atoms: O2_8  and  C7_9 
REMARK    6  A    between atoms: C8_10  and  O11_38 
REMARK    7  A    between atoms: C9_11  and  O10_37 
REMARK    8  A    between atoms: C10_12  and  C27_35 
REMARK    9  A    between atoms: C11_14  and  O4_15 
REMARK   10  A    between atoms: O4_15  and  C12_16 
REMARK   11  A    between atoms: C14_18  and  O8_34 
REMARK   12  A    between atoms: C18_23  and  C21_27 
REMARK   13  A    between atoms: C24_30  and  O7_33 
REMARK   14  A    between atoms: C27_35  and  O9_36 
ROOT
HETATM    1  C7  NAR     1      24.606  73.553  89.363  1.00  0.00     0.211 C 
HETATM    2  C8  NAR     1      23.715  74.760  89.710  1.00  0.00     0.183 C 
HETATM    3  C9  NAR     1      23.381  74.823  91.215  1.00  0.00     0.180 C 
HETATM    4  C10 NAR     1      23.467  73.427  91.858  1.00  0.00     0.179 C 
HETATM    5  O3  NAR     1      23.008  72.444  90.934  1.00  0.00    -0.348 OA
HETATM    6  C11 NAR     1      23.942  72.232  89.859  1.00  0.00     0.298 C 
ENDROOT
BRANCH   6   7
HETATM    7  O4  NAR     1      23.239  71.674  88.738  1.00  0.00    -0.318 OA
BRANCH   7   8
HETATM    8  C12 NAR     1      23.069  70.319  88.710  1.00  0.00     0.077 A 
HETATM    9  C13 NAR     1      21.845  69.653  88.631  1.00  0.00     0.074 A 
HETATM   10  C14 NAR     1      21.813  68.259  88.592  1.00  0.00     0.085 A 
HETATM   11  C15 NAR     1      23.000  67.523  88.631  1.00  0.00     0.076 A 
HETATM   12  C16 NAR     1      23.004  66.052  88.538  1.00  0.00     0.167 C 
HETATM   13  C19 NAR     1      24.223  68.186  88.718  1.00  0.00     0.089 A 
HETATM   14  O5  NAR     1      21.940  65.440  88.469  1.00  0.00    -0.292 OA
HETATM   15  C17 NAR     1      24.344  65.379  88.462  1.00  0.00     0.121 C 
HETATM   16  C18 NAR     1      25.334  66.202  89.275  1.00  0.00     0.169 C 
HETATM   17  O6  NAR     1      25.431  67.542  88.763  1.00  0.00    -0.340 OA
HETATM   18  C20 NAR     1      24.256  69.579  88.735  1.00  0.00     0.074 A 
BRANCH  10  19
HETATM   19  O8  NAR     1      20.578  67.674  88.501  1.00  0.00    -0.360 OA
HETATM   20  H24 NAR     1      19.899  68.387  88.501  1.00  0.00     0.217 HD
ENDBRANCH  10  19
BRANCH  16  21
HETATM   21  C21 NAR     1      26.709  65.561  89.244  1.00  0.00    -0.028 A 
HETATM   22  C22 NAR     1      27.309  65.058  90.412  1.00  0.00     0.012 A 
HETATM   23  C23 NAR     1      28.585  64.491  90.372  1.00  0.00     0.037 A 
HETATM   24  C24 NAR     1      29.269  64.430  89.163  1.00  0.00     0.065 A 
HETATM   25  C25 NAR     1      28.699  64.927  87.998  1.00  0.00     0.037 A 
HETATM   26  C26 NAR     1      27.423  65.493  88.037  1.00  0.00     0.012 A 
BRANCH  24  27
HETATM   27  O7  NAR     1      30.516  63.887  89.077  1.00  0.00    -0.361 OA
HETATM   28  H23 NAR     1      30.432  62.919  89.074  1.00  0.00     0.217 HD
ENDBRANCH  24  27
ENDBRANCH  16  21
ENDBRANCH   7   8
ENDBRANCH   6   7
BRANCH   1  29
HETATM   29  O2  NAR     1      25.886  73.750  89.992  1.00  0.00    -0.346 OA
BRANCH  29  30
HETATM   30  C6  NAR     1      26.962  73.793  89.049  1.00  0.00     0.292 C 
HETATM   31  C5  NAR     1      28.280  73.763  89.854  1.00  0.00     0.204 C 
HETATM   32  C4  NAR     1      29.458  73.322  88.974  1.00  0.00     0.183 C 
HETATM   33  C3  NAR     1      29.157  73.556  87.492  1.00  0.00     0.178 C 
HETATM   34  C2  NAR     1      27.883  72.781  87.097  1.00  0.00     0.152 C 
HETATM   35  C1  NAR     1      27.220  73.375  85.858  1.00  0.00     0.042 C 
HETATM   36  O1  NAR     1      26.911  72.693  88.153  1.00  0.00    -0.351 OA
BRANCH  31  37
HETATM   37  O12 NAR     1      28.555  75.065  90.409  1.00  0.00    -0.388 OA
HETATM   38  H30 NAR     1      28.434  75.697  89.671  1.00  0.00     0.210 HD
ENDBRANCH  31  37
BRANCH  32  39
HETATM   39  O13 NAR     1      30.662  74.024  89.324  1.00  0.00    -0.390 OA
HETATM   40  H31 NAR     1      30.360  74.893  89.670  1.00  0.00     0.210 HD
ENDBRANCH  32  39
BRANCH  33  41
HETATM   41  O14 NAR     1      30.266  73.137  86.693  1.00  0.00    -0.390 OA
HETATM   42  H32 NAR     1      30.921  72.784  87.331  1.00  0.00     0.210 HD
ENDBRANCH  33  41
ENDBRANCH  29  30
ENDBRANCH   1  29
BRANCH   2  43
HETATM   43  O11 NAR     1      22.506  74.718  88.933  1.00  0.00    -0.390 OA
HETATM   44  H29 NAR     1      21.953  75.480  89.192  1.00  0.00     0.210 HD
ENDBRANCH   2  43
BRANCH   4  45
HETATM   45  C27 NAR     1      22.618  73.363  93.133  1.00  0.00     0.198 C 
BRANCH  45  46
HETATM   46  O9  NAR     1      22.610  74.628  93.789  1.00  0.00    -0.398 OA
HETATM   47  H27 NAR     1      23.516  74.774  94.121  1.00  0.00     0.209 HD
ENDBRANCH  45  46
ENDBRANCH   4  45
BRANCH   3  48
HETATM   48  O10 NAR     1      24.263  75.723  91.896  1.00  0.00    -0.390 OA
HETATM   49  H28 NAR     1      23.888  75.832  92.795  1.00  0.00     0.210 HD
ENDBRANCH   3  48
TORSDOF 14
ENDMDL
