MODEL 1
REMARK VINA RESULT:    -8.202      0.000      0.000
REMARK INTER + INTRA:         -10.222
REMARK INTER:                  -9.880
REMARK INTRA:                  -0.342
REMARK UNBOUND:                -0.342
REMARK  5 active torsions:
REMARK  status: ('A' for Active; 'I' for Inactive)
REMARK    1  A    between atoms: C3_3  and  O3_17 
REMARK    2  A    between atoms: C6_6  and  C7_7 
REMARK    3  A    between atoms: C8_8  and  C9_9 
REMARK    4  A    between atoms: C11_11  and  O2_16 
REMARK    5  A    between atoms: C13_13  and  O1_15 
ROOT
HETATM    1  C9  RES     1      18.820  90.267 113.146  1.00  0.00    -0.031 A 
HETATM    2  C10 RES     1      18.065  90.906 114.139  1.00  0.00     0.048 A 
HETATM    3  C11 RES     1      17.090  91.838 113.788  1.00  0.00     0.069 A 
HETATM    4  C12 RES     1      16.842  92.142 112.456  1.00  0.00     0.073 A 
HETATM    5  C13 RES     1      17.578  91.496 111.471  1.00  0.00     0.069 A 
HETATM    6  C14 RES     1      18.559  90.561 111.800  1.00  0.00     0.048 A 
ENDROOT
BRANCH   1   7
HETATM    7  C8  RES     1      19.819  89.268 113.550  1.00  0.00     0.012 C 
HETATM    8  C7  RES     1      20.219  89.084 114.819  1.00  0.00     0.012 C 
BRANCH   8   9
HETATM    9  C6  RES     1      21.217  88.083 115.225  1.00  0.00    -0.036 A 
HETATM   10  C1  RES     1      22.497  88.442 115.672  1.00  0.00     0.014 A 
HETATM   11  C2  RES     1      23.430  87.462 116.021  1.00  0.00     0.037 A 
HETATM   12  C3  RES     1      23.086  86.119 115.913  1.00  0.00     0.065 A 
HETATM   13  C4  RES     1      21.828  85.744 115.458  1.00  0.00     0.037 A 
HETATM   14  C5  RES     1      20.897  86.724 115.108  1.00  0.00     0.014 A 
BRANCH  12  15
HETATM   15  O3  RES     1      23.964  85.130 116.242  1.00  0.00    -0.361 OA
HETATM   16  H12 RES     1      23.528  84.272 116.108  1.00  0.00     0.217 HD
ENDBRANCH  12  15
ENDBRANCH   8   9
ENDBRANCH   1   7
BRANCH   3  17
HETATM   17  O2  RES     1      16.392  92.435 114.796  1.00  0.00    -0.361 OA
HETATM   18  H11 RES     1      16.483  93.399 114.703  1.00  0.00     0.217 HD
ENDBRANCH   3  17
BRANCH   5  19
HETATM   19  O1  RES     1      17.302  91.806 110.170  1.00  0.00    -0.361 OA
HETATM   20  H10 RES     1      16.909  92.694 110.139  1.00  0.00     0.217 HD
ENDBRANCH   5  19
TORSDOF 5
ENDMDL
