MODEL 1
REMARK VINA RESULT:    -8.108      0.000      0.000
REMARK INTER + INTRA:         -10.088
REMARK INTER:                  -9.766
REMARK INTRA:                  -0.322
REMARK UNBOUND:                -0.322
REMARK  5 active torsions:
REMARK  status: ('A' for Active; 'I' for Inactive)
REMARK    1  A    between atoms: O1_2  and  C2_3 
REMARK    2  A    between atoms: C4_5  and  O6_22 
REMARK    3  A    between atoms: C8_10  and  C11_15 
REMARK    4  A    between atoms: C9_11  and  O4_14 
REMARK    5  A    between atoms: C14_18  and  O5_21 
ROOT
HETATM    1  C2  RHA     1      21.118  86.564 115.946  1.00  0.00     0.073 A 
HETATM    2  C3  RHA     1      21.929  85.777 115.126  1.00  0.00     0.074 A 
HETATM    3  C4  RHA     1      22.973  85.037 115.684  1.00  0.00     0.085 A 
HETATM    4  C5  RHA     1      23.211  85.080 117.059  1.00  0.00     0.084 A 
HETATM    5  C6  RHA     1      22.405  85.860 117.879  1.00  0.00     0.096 A 
HETATM    6  C7  RHA     1      21.361  86.600 117.325  1.00  0.00     0.075 A 
HETATM    7  O2  RHA     1      22.579  85.946 119.236  1.00  0.00    -0.306 OA
HETATM    8  C8  RHA     1      23.618  85.233 119.827  1.00  0.00     0.123 A 
HETATM    9  C9  RHA     1      24.463  84.436 119.147  1.00  0.00     0.152 A 
HETATM   10  C10 RHA     1      24.294  84.316 117.680  1.00  0.00     0.223 A 
HETATM   11  O3  RHA     1      25.042  83.598 117.021  1.00  0.00    -0.284 OA
ENDROOT
BRANCH   8  12
HETATM   12  C11 RHA     1      23.682  85.422 121.292  1.00  0.00     0.001 A 
HETATM   13  C12 RHA     1      24.278  86.579 121.822  1.00  0.00     0.017 A 
HETATM   14  C13 RHA     1      24.374  86.769 123.204  1.00  0.00     0.037 A 
HETATM   15  C14 RHA     1      23.880  85.795 124.063  1.00  0.00     0.065 A 
HETATM   16  C15 RHA     1      23.296  84.639 123.564  1.00  0.00     0.037 A 
HETATM   17  C16 RHA     1      23.200  84.450 122.183  1.00  0.00     0.017 A 
BRANCH  15  18
HETATM   18  O5  RHA     1      23.954  85.937 125.417  1.00  0.00    -0.361 OA
HETATM   19  H11 RHA     1      24.745  86.459 125.631  1.00  0.00     0.217 HD
ENDBRANCH  15  18
ENDBRANCH   8  12
BRANCH   9  20
HETATM   20  O4  RHA     1      25.479  83.701 119.726  1.00  0.00    -0.355 OA
HETATM   21  H6  RHA     1      26.151  84.357 120.006  1.00  0.00     0.218 HD
ENDBRANCH   9  20
BRANCH   3  22
HETATM   22  O6  RHA     1      23.726  84.289 114.820  1.00  0.00    -0.360 OA
HETATM   23  H12 RHA     1      24.030  84.870 114.087  1.00  0.00     0.217 HD
ENDBRANCH   3  22
BRANCH   1  24
HETATM   24  O1  RHA     1      20.066  87.334 115.534  1.00  0.00    -0.356 OA
HETATM   25  C1  RHA     1      20.371  88.452 114.708  1.00  0.00     0.210 C 
ENDBRANCH   1  24
TORSDOF 5
ENDMDL
