MODEL 1
REMARK VINA RESULT:    -9.433      0.000      0.000
REMARK INTER + INTRA:         -18.166
REMARK INTER:                 -15.498
REMARK INTRA:                  -2.667
REMARK UNBOUND:                -2.667
REMARK  16 active torsions:
REMARK  status: ('A' for Active; 'I' for Inactive)
REMARK    1  A    between atoms: C3_3  and  O16_43 
REMARK    2  A    between atoms: C4_4  and  O15_42 
REMARK    3  A    between atoms: C5_5  and  O14_41 
REMARK    4  A    between atoms: C6_6  and  O2_8 
REMARK    5  A    between atoms: O2_8  and  C7_9 
REMARK    6  A    between atoms: C7_9  and  C8_10 
REMARK    7  A    between atoms: C9_11  and  O13_40 
REMARK    8  A    between atoms: C10_12  and  O12_39 
REMARK    9  A    between atoms: C11_13  and  O11_38 
REMARK   10  A    between atoms: C12_14  and  O4_16 
REMARK   11  A    between atoms: O4_16  and  C13_17 
REMARK   12  A    between atoms: C14_18  and  C22_30 
REMARK   13  A    between atoms: C17_22  and  O8_29 
REMARK   14  A    between atoms: C19_24  and  O7_28 
REMARK   15  A    between atoms: C24_32  and  O10_37 
REMARK   16  A    between atoms: C25_33  and  O9_36 
ROOT
HETATM    1  C8  RUT     1      33.003  65.171  89.459  1.00  0.00     0.180 C 
HETATM    2  C9  RUT     1      31.772  65.022  90.368  1.00  0.00     0.180 C 
HETATM    3  C10 RUT     1      30.506  64.990  89.504  1.00  0.00     0.183 C 
HETATM    4  C11 RUT     1      30.677  64.181  88.212  1.00  0.00     0.205 C 
HETATM    5  C12 RUT     1      31.977  63.350  88.212  1.00  0.00     0.298 C 
HETATM    6  O3  RUT     1      33.158  64.106  88.515  1.00  0.00    -0.348 OA
ENDROOT
BRANCH   5   7
HETATM    7  O4  RUT     1      31.851  62.267  89.142  1.00  0.00    -0.311 OA
BRANCH   7   8
HETATM    8  C13 RUT     1      31.260  61.147  88.583  1.00  0.00     0.157 A 
HETATM    9  C14 RUT     1      31.973  60.164  88.003  1.00  0.00     0.124 A 
HETATM   10  O5  RUT     1      31.433  59.026  87.429  1.00  0.00    -0.306 OA
HETATM   11  C15 RUT     1      30.078  58.832  87.509  1.00  0.00     0.096 A 
HETATM   12  C16 RUT     1      29.574  57.657  86.953  1.00  0.00     0.075 A 
HETATM   13  C20 RUT     1      29.217  59.745  88.110  1.00  0.00     0.084 A 
HETATM   14  C17 RUT     1      28.205  57.406  87.004  1.00  0.00     0.071 A 
HETATM   15  C18 RUT     1      27.332  58.310  87.602  1.00  0.00     0.074 A 
HETATM   16  C19 RUT     1      27.843  59.481  88.156  1.00  0.00     0.085 A 
HETATM   17  C21 RUT     1      29.786  60.974  88.674  1.00  0.00     0.223 A 
HETATM   18  O6  RUT     1      29.053  61.819  89.186  1.00  0.00    -0.284 OA
BRANCH   9  19
HETATM   19  C22 RUT     1      33.440  60.224  87.884  1.00  0.00     0.004 A 
HETATM   20  C23 RUT     1      34.024  60.649  86.681  1.00  0.00     0.053 A 
HETATM   21  C24 RUT     1      35.410  60.683  86.567  1.00  0.00     0.099 A 
HETATM   22  C25 RUT     1      36.215  60.290  87.633  1.00  0.00     0.098 A 
HETATM   23  C26 RUT     1      35.654  59.866  88.827  1.00  0.00     0.040 A 
HETATM   24  C27 RUT     1      34.264  59.835  88.954  1.00  0.00     0.017 A 
BRANCH  21  25
HETATM   25  O10 RUT     1      36.031  61.097  85.420  1.00  0.00    -0.358 OA
HETATM   26  H24 RUT     1      35.797  60.481  84.705  1.00  0.00     0.217 HD
ENDBRANCH  21  25
BRANCH  22  27
HETATM   27  O9  RUT     1      37.574  60.317  87.509  1.00  0.00    -0.358 OA
HETATM   28  H23 RUT     1      37.833  61.209  87.814  1.00  0.00     0.217 HD
ENDBRANCH  22  27
ENDBRANCH   9  19
BRANCH  14  29
HETATM   29  O8  RUT     1      27.755  56.246  86.448  1.00  0.00    -0.361 OA
HETATM   30  H19 RUT     1      27.355  56.444  85.584  1.00  0.00     0.217 HD
ENDBRANCH  14  29
BRANCH  16  31
HETATM   31  O7  RUT     1      26.937  60.333  88.730  1.00  0.00    -0.360 OA
HETATM   32  H18 RUT     1      26.040  60.103  88.396  1.00  0.00     0.217 HD
ENDBRANCH  16  31
ENDBRANCH   7   8
ENDBRANCH   5   7
BRANCH   4  33
HETATM   33  O11 RUT     1      30.692  65.100  87.101  1.00  0.00    -0.388 OA
HETATM   34  H25 RUT     1      29.884  65.639  87.169  1.00  0.00     0.210 HD
ENDBRANCH   4  33
BRANCH   3  35
HETATM   35  O12 RUT     1      29.429  64.462  90.296  1.00  0.00    -0.390 OA
HETATM   36  H26 RUT     1      29.412  63.506  90.094  1.00  0.00     0.210 HD
ENDBRANCH   3  35
BRANCH   1  37
HETATM   37  C7  RUT     1      34.304  65.263  90.273  1.00  0.00     0.205 C 
BRANCH  37  38
HETATM   38  O2  RUT     1      35.408  65.565  89.411  1.00  0.00    -0.356 OA
BRANCH  38  39
HETATM   39  C6  RUT     1      36.573  64.813  89.774  1.00  0.00     0.291 C 
HETATM   40  C5  RUT     1      36.837  63.725  88.713  1.00  0.00     0.204 C 
HETATM   41  C4  RUT     1      37.360  64.350  87.421  1.00  0.00     0.183 C 
HETATM   42  C3  RUT     1      38.554  65.267  87.701  1.00  0.00     0.178 C 
HETATM   43  C2  RUT     1      38.151  66.311  88.753  1.00  0.00     0.152 C 
HETATM   44  C1  RUT     1      39.323  67.212  89.126  1.00  0.00     0.042 C 
HETATM   45  O1  RUT     1      37.696  65.681  89.954  1.00  0.00    -0.351 OA
BRANCH  40  46
HETATM   46  O14 RUT     1      37.798  62.765  89.185  1.00  0.00    -0.388 OA
HETATM   47  H28 RUT     1      37.280  62.159  89.754  1.00  0.00     0.210 HD
ENDBRANCH  40  46
BRANCH  41  48
HETATM   48  O15 RUT     1      37.769  63.301  86.524  1.00  0.00    -0.390 OA
HETATM   49  H29 RUT     1      38.199  62.638  87.102  1.00  0.00     0.210 HD
ENDBRANCH  41  48
BRANCH  42  50
HETATM   50  O16 RUT     1      38.944  65.861  86.457  1.00  0.00    -0.390 OA
HETATM   51  H30 RUT     1      39.635  65.295  86.068  1.00  0.00     0.210 HD
ENDBRANCH  42  50
ENDBRANCH  38  39
ENDBRANCH  37  38
ENDBRANCH   1  37
BRANCH   2  52
HETATM   52  O13 RUT     1      31.614  66.095  91.309  1.00  0.00    -0.390 OA
HETATM   53  H27 RUT     1      31.880  66.919  90.851  1.00  0.00     0.210 HD
ENDBRANCH   2  52
TORSDOF 16
ENDMDL
