MODEL 1
REMARK VINA RESULT:   -10.587      0.000      0.000
REMARK INTER + INTRA:         -14.953
REMARK INTER:                 -14.611
REMARK INTRA:                  -0.342
REMARK UNBOUND:                -0.342
REMARK  9 active torsions:
REMARK  status: ('A' for Active; 'I' for Inactive)
REMARK    1  A    between atoms: O1_2  and  C2_3 
REMARK    2  A    between atoms: C3_4  and  O10_35 
REMARK    3  A    between atoms: C6_7  and  C8_9 
REMARK    4  A    between atoms: C9_10  and  C25_33 
REMARK    5  A    between atoms: C13_16  and  C16_19 
REMARK    6  A    between atoms: C17_20  and  O8_32 
REMARK    7  A    between atoms: C20_24  and  O7_31 
REMARK    8  A    between atoms: C22_26  and  O6_30 
REMARK    9  A    between atoms: C25_33  and  O9_34 
ROOT
HETATM    1  C8  SIL     1      25.995  85.217 123.780  1.00  0.00     0.193 C 
HETATM    2  C9  SIL     1      25.430  86.612 124.102  1.00  0.00     0.186 C 
HETATM    3  O2  SIL     1      24.972  86.657 125.474  1.00  0.00    -0.338 OA
HETATM    4  C10 SIL     1      25.881  86.100 126.333  1.00  0.00     0.102 A 
HETATM    5  C11 SIL     1      26.931  85.284 125.915  1.00  0.00     0.103 A 
HETATM    6  O3  SIL     1      27.144  84.945 124.605  1.00  0.00    -0.336 OA
HETATM    7  C12 SIL     1      27.839  84.776 126.845  1.00  0.00     0.049 A 
HETATM    8  C13 SIL     1      27.686  85.050 128.215  1.00  0.00    -0.023 A 
HETATM    9  C14 SIL     1      26.612  85.860 128.623  1.00  0.00     0.013 A 
HETATM   10  C15 SIL     1      25.713  86.377 127.687  1.00  0.00     0.040 A 
ENDROOT
BRANCH   8  11
HETATM   11  C16 SIL     1      28.670  84.518 129.248  1.00  0.00     0.198 C 
HETATM   12  C17 SIL     1      27.945  84.047 130.514  1.00  0.00     0.227 C 
HETATM   13  C18 SIL     1      28.983  83.621 131.535  1.00  0.00     0.196 C 
HETATM   14  O4  SIL     1      28.762  82.754 132.382  1.00  0.00    -0.289 OA
HETATM   15  C19 SIL     1      30.278  84.317 131.513  1.00  0.00     0.079 A 
HETATM   16  C20 SIL     1      31.258  84.068 132.482  1.00  0.00     0.085 A 
HETATM   17  C24 SIL     1      30.510  85.264 130.516  1.00  0.00     0.089 A 
HETATM   18  C21 SIL     1      32.459  84.772 132.466  1.00  0.00     0.074 A 
HETATM   19  C22 SIL     1      32.669  85.732 131.480  1.00  0.00     0.071 A 
HETATM   20  C23 SIL     1      31.704  85.985 130.509  1.00  0.00     0.074 A 
HETATM   21  O5  SIL     1      29.611  85.569 129.533  1.00  0.00    -0.337 OA
BRANCH  12  22
HETATM   22  O8  SIL     1      27.098  82.924 130.253  1.00  0.00    -0.385 OA
HETATM   23  H18 SIL     1      27.226  82.697 129.310  1.00  0.00     0.210 HD
ENDBRANCH  12  22
BRANCH  16  24
HETATM   24  O7  SIL     1      31.102  83.147 133.484  1.00  0.00    -0.360 OA
HETATM   25  H17 SIL     1      30.152  82.901 133.534  1.00  0.00     0.217 HD
ENDBRANCH  16  24
BRANCH  19  26
HETATM   26  O6  SIL     1      33.824  86.454 131.428  1.00  0.00    -0.361 OA
HETATM   27  H16 SIL     1      34.580  85.842 131.445  1.00  0.00     0.217 HD
ENDBRANCH  19  26
ENDBRANCH   8  11
BRANCH   1  28
HETATM   28  C6  SIL     1      26.443  85.059 122.339  1.00  0.00    -0.024 A 
HETATM   29  C5  SIL     1      27.805  85.058 122.003  1.00  0.00     0.013 A 
HETATM   30  C4  SIL     1      28.207  84.933 120.673  1.00  0.00     0.040 A 
HETATM   31  C3  SIL     1      27.246  84.803 119.672  1.00  0.00     0.099 A 
HETATM   32  C2  SIL     1      25.879  84.790 119.977  1.00  0.00     0.101 A 
HETATM   33  C7  SIL     1      25.487  84.919 121.315  1.00  0.00     0.049 A 
BRANCH  31  34
HETATM   34  O10 SIL     1      27.640  84.681 118.365  1.00  0.00    -0.358 OA
HETATM   35  H22 SIL     1      26.874  84.820 117.788  1.00  0.00     0.217 HD
ENDBRANCH  31  34
BRANCH  32  36
HETATM   36  O1  SIL     1      25.023  84.655 118.916  1.00  0.00    -0.353 OA
HETATM   37  C1  SIL     1      23.652  84.949 119.134  1.00  0.00     0.210 C 
ENDBRANCH  32  36
ENDBRANCH   1  28
BRANCH   2  38
HETATM   38  C25 SIL     1      24.216  86.970 123.238  1.00  0.00     0.199 C 
BRANCH  38  39
HETATM   39  O9  SIL     1      23.917  88.363 123.362  1.00  0.00    -0.398 OA
HETATM   40  H21 SIL     1      24.243  88.635 124.241  1.00  0.00     0.209 HD
ENDBRANCH  38  39
ENDBRANCH   2  38
TORSDOF 9
ENDMDL
