MODEL 1
REMARK VINA RESULT:    -9.147      0.000      0.000
REMARK INTER + INTRA:         -13.763
REMARK INTER:                 -12.622
REMARK INTRA:                  -1.141
REMARK UNBOUND:                -1.141
REMARK  10 active torsions:
REMARK  status: ('A' for Active; 'I' for Inactive)
REMARK    1  A    between atoms: C3_3  and  O10_31 
REMARK    2  A    between atoms: C6_6  and  C7_7 
REMARK    3  A    between atoms: C12_14  and  C16_20 
REMARK    4  A    between atoms: C13_15  and  O4_19 
REMARK    5  A    between atoms: C15_17  and  O3_18 
REMARK    6  A    between atoms: C17_21  and  O9_30 
REMARK    7  A    between atoms: C18_22  and  O8_29 
REMARK    8  A    between atoms: C19_23  and  O7_28 
REMARK    9  A    between atoms: C20_24  and  C21_26 
REMARK   10  A    between atoms: C21_26  and  O6_27 
ROOT
HETATM    1  C7  VIT     1      26.566  73.603  88.276  1.00  0.00     0.090 A 
HETATM    2  C8  VIT     1      26.439  74.788  88.889  1.00  0.00     0.094 A 
HETATM    3  C9  VIT     1      25.465  74.919  89.977  1.00  0.00     0.190 A 
HETATM    4  O1  VIT     1      25.304  75.983  90.566  1.00  0.00    -0.287 OA
HETATM    5  C10 VIT     1      24.683  73.727  90.329  1.00  0.00     0.082 A 
HETATM    6  C11 VIT     1      24.918  72.539  89.632  1.00  0.00     0.104 A 
HETATM    7  O2  VIT     1      25.850  72.470  88.621  1.00  0.00    -0.308 OA
HETATM    8  C12 VIT     1      24.194  71.368  89.942  1.00  0.00     0.041 A 
HETATM    9  C13 VIT     1      23.222  71.450  90.956  1.00  0.00     0.080 A 
HETATM   10  C14 VIT     1      22.983  72.636  91.651  1.00  0.00     0.074 A 
HETATM   11  C15 VIT     1      23.718  73.773  91.339  1.00  0.00     0.085 A 
ENDROOT
BRANCH   8  12
HETATM   12  C16 VIT     1      24.440  70.055  89.215  1.00  0.00     0.192 C 
HETATM   13  C17 VIT     1      25.431  69.122  89.966  1.00  0.00     0.183 C 
HETATM   14  C18 VIT     1      25.127  67.631  89.688  1.00  0.00     0.181 C 
HETATM   15  C19 VIT     1      24.568  67.466  88.269  1.00  0.00     0.180 C 
HETATM   16  C20 VIT     1      23.277  68.307  88.083  1.00  0.00     0.177 C 
HETATM   17  O5  VIT     1      23.178  69.405  89.008  1.00  0.00    -0.368 OA
BRANCH  13  18
HETATM   18  O9  VIT     1      26.779  69.413  89.554  1.00  0.00    -0.390 OA
HETATM   19  H19 VIT     1      27.109  70.099  90.171  1.00  0.00     0.210 HD
ENDBRANCH  13  18
BRANCH  14  20
HETATM   20  O8  VIT     1      24.210  67.078  90.633  1.00  0.00    -0.390 OA
HETATM   21  H18 VIT     1      24.675  66.998  91.486  1.00  0.00     0.210 HD
ENDBRANCH  14  20
BRANCH  15  22
HETATM   22  O7  VIT     1      25.581  67.920  87.345  1.00  0.00    -0.390 OA
HETATM   23  H17 VIT     1      26.018  67.116  87.007  1.00  0.00     0.210 HD
ENDBRANCH  15  22
BRANCH  16  24
HETATM   24  C21 VIT     1      22.016  67.452  88.246  1.00  0.00     0.198 C 
BRANCH  24  25
HETATM   25  O6  VIT     1      20.885  68.277  88.518  1.00  0.00    -0.398 OA
HETATM   26  H16 VIT     1      20.378  68.331  87.688  1.00  0.00     0.209 HD
ENDBRANCH  24  25
ENDBRANCH  16  24
ENDBRANCH   8  12
BRANCH   9  27
HETATM   27  O4  VIT     1      22.492  70.337  91.273  1.00  0.00    -0.360 OA
HETATM   28  H8  VIT     1      23.050  69.548  91.165  1.00  0.00     0.217 HD
ENDBRANCH   9  27
BRANCH  11  29
HETATM   29  O3  VIT     1      23.438  74.903  92.058  1.00  0.00    -0.360 OA
HETATM   30  H7  VIT     1      22.538  74.805  92.445  1.00  0.00     0.217 HD
ENDBRANCH  11  29
BRANCH   1  31
HETATM   31  C6  VIT     1      27.522  73.398  87.169  1.00  0.00    -0.002 A 
HETATM   32  C1  VIT     1      27.093  73.080  85.870  1.00  0.00     0.017 A 
HETATM   33  C2  VIT     1      28.016  72.872  84.839  1.00  0.00     0.037 A 
HETATM   34  C3  VIT     1      29.376  72.973  85.109  1.00  0.00     0.065 A 
HETATM   35  C4  VIT     1      29.824  73.275  86.387  1.00  0.00     0.037 A 
HETATM   36  C5  VIT     1      28.900  73.486  87.414  1.00  0.00     0.017 A 
BRANCH  34  37
HETATM   37  O10 VIT     1      30.311  72.776  84.136  1.00  0.00    -0.361 OA
HETATM   38  H20 VIT     1      30.529  73.632  83.734  1.00  0.00     0.217 HD
ENDBRANCH  34  37
ENDBRANCH   1  31
TORSDOF 10
ENDMDL
