@<TRIPOS>MOLECULE
pgl.pdb
 43 42 0 0 0
SMALL
GASTEIGER

@<TRIPOS>ATOM
      1  C          7.3350    3.4050   12.7780 C.3     1  PGL1        0.0857
      2  C          7.4250    4.7770   12.0780 C.3     1  PGL1        0.1087
      3  C          6.0560    5.4550   11.9170 C.3     1  PGL1        0.0791
      4  O          5.3750    5.5480   13.1640 O.3     1  PGL1       -0.3492
      5  C          4.5290    6.6120   13.4850 C.3     1  PGL1        0.1534
      6  C          3.0960    6.5500   13.0820 C.3     1  PGL1       -0.0138
      7  O          4.9660    7.6160   14.1110 O.3     1  PGL1       -0.3672
      8  O          8.3800    5.6500   12.6980 O.3     1  PGL1       -0.3440
      9  C          9.6080    6.0560   12.1550 C.3     1  PGL1        0.1539
     10  O          9.7080    7.1090   11.4690 O.3     1  PGL1       -0.3672
     11  C         10.8320    5.2580   12.4490 C.3     1  PGL1       -0.0138
     12  O          6.5120    2.5270   12.0390 O.3     1  PGL1       -0.3057
     13  P          5.2540    1.9190   13.0260 P.3     1  PGL1        0.2603
     14  O          4.8510    0.5280   12.5900 O.3     1  PGL1       -0.3243
     15  O          3.9120    2.9410   12.8930 O.3     1  PGL1       -0.3243
     16  H          4.1510    3.7390   13.4270 H       1  PGL1        0.2201
     17  O          5.7310    1.8590   14.6680 O.3     1  PGL1       -0.3071
     18  C          4.6580    1.4220   15.4770 C.3     1  PGL1        0.0695
     19  C          5.0470    0.2180   16.3460 C.3     1  PGL1        0.0172
     20  N          4.0610   -0.8480   16.1980 N.3     1  PGL1       -0.3279
     21  H          3.2270   -0.6040   16.7810 H       1  PGL1        0.1183
     22  H          4.4680   -1.7170   16.6130 H       1  PGL1        0.1183
     23  H          8.3160    2.9850   12.8580 H       1  PGL1        0.0592
     24  H          6.9120    3.5400   13.7520 H       1  PGL1        0.0592
     25  H          7.7840    4.5740   11.0910 H       1  PGL1        0.0643
     26  H          6.1990    6.4400   11.5240 H       1  PGL1        0.0587
     27  H          5.4630    4.8640   11.2510 H       1  PGL1        0.0587
     28  H          5.3360    7.2300   13.8190 H       1  PGL1        0.0904
     29  H          2.8410    5.5430   12.8270 H       1  PGL1        0.0278
     30  H          2.4820    6.8780   13.8950 H       1  PGL1        0.0278
     31  H          2.9360    7.1840   12.2350 H       1  PGL1        0.0278
     32  H          4.2380    8.0910   14.4950 H       1  PGL1        0.2125
     33  H          9.0540    5.8270   11.2680 H       1  PGL1        0.0904
     34  H         10.2260    7.7480   11.9440 H       1  PGL1        0.2125
     35  H         11.2720    5.6030   13.3610 H       1  PGL1        0.0278
     36  H         10.5690    4.2250   12.5480 H       1  PGL1        0.0278
     37  H         11.5330    5.3730   11.6490 H       1  PGL1        0.0278
     38  H          6.3230    1.5870   13.9160 H       1  PGL1        0.1627
     39  H          4.1280    0.5850   11.9770 H       1  PGL1        0.2201
     40  H          4.3570    2.2260   16.1160 H       1  PGL1        0.0578
     41  H          3.8590    1.1200   14.8320 H       1  PGL1        0.0578
     42  H          6.0070   -0.1430   16.0410 H       1  PGL1        0.0444
     43  H          5.0810    0.5230   17.3710 H       1  PGL1        0.0444
@<TRIPOS>BOND
     1     1     2    1
     2     1    12    1
     3     1    23    1
     4     1    24    1
     5     2     3    1
     6     2     8    1
     7     2    25    1
     8     3     4    1
     9     3    26    1
    10     3    27    1
    11     4     5    1
    12     5     6    1
    13     5     7    1
    14     5    28    1
    15     6    29    1
    16     6    30    1
    17     6    31    1
    18     7    32    1
    19     8     9    1
    20     9    10    1
    21     9    11    1
    22     9    33    1
    23    10    34    1
    24    11    35    1
    25    11    36    1
    26    11    37    1
    27    12    13    1
    28    13    14    1
    29    13    15    1
    30    13    17    1
    31    13    38    1
    32    14    39    1
    33    15    16    1
    34    17    18    1
    35    18    19    1
    36    18    40    1
    37    18    41    1
    38    19    20    1
    39    19    42    1
    40    19    43    1
    41    20    21    1
    42    20    22    1
