@<TRIPOS>MOLECULE
pgl.pdb
   43    42     1     0     0
SMALL
bcc


@<TRIPOS>ATOM
      1 C            7.3350     3.4050    12.7780 c3         1 PGL       0.145400
      2 C1           7.4250     4.7770    12.0780 c3         1 PGL       0.144100
      3 C2           6.0560     5.4550    11.9170 c3         1 PGL       0.001400
      4 O            5.3750     5.5480    13.1640 os         1 PGL      -0.258600
      5 C3           4.5290     6.6120    13.4850 c3         1 PGL       0.167900
      6 C4           3.0960     6.5500    13.0820 c3         1 PGL      -0.205100
      7 O1           4.9660     7.6160    14.1110 oh         1 PGL      -0.698800
      8 O2           8.3800     5.6500    12.6980 os         1 PGL      -0.462600
      9 C5           9.6080     6.0560    12.1550 c3         1 PGL       0.338900
     10 O3           9.7080     7.1090    11.4690 oh         1 PGL      -0.642800
     11 C6          10.8320     5.2580    12.4490 c3         1 PGL      -0.126100
     12 O4           6.5120     2.5270    12.0390 os         1 PGL      -0.349900
     13 P            5.2540     1.9190    13.0260 p5         1 PGL      -0.079900
     14 O5           4.8510     0.5280    12.5900 oh         1 PGL      -0.524100
     15 O6           3.9120     2.9410    12.8930 oh         1 PGL      -0.524100
     16 H            4.1510     3.7390    13.4270 ho         1 PGL       0.437000
     17 O7           5.7310     1.8590    14.6680 os         1 PGL      -0.221900
     18 C7           4.6580     1.4220    15.4770 c3         1 PGL       0.108400
     19 C8           5.0470     0.2180    16.3460 c3         1 PGL       0.128800
     20 N            4.0610    -0.8480    16.1980 n8         1 PGL      -0.910800
     21 H1           3.2270    -0.6040    16.7810 hn         1 PGL       0.355300
     22 H2           4.4680    -1.7170    16.6130 hn         1 PGL       0.355300
     23 H3           8.3160     2.9850    12.8580 h1         1 PGL       0.054700
     24 H4           6.9120     3.5400    13.7520 h1         1 PGL       0.054700
     25 H5           7.7840     4.5740    11.0910 h1         1 PGL       0.061700
     26 H6           6.1990     6.4400    11.5240 h1         1 PGL       0.078700
     27 H7           5.4630     4.8640    11.2510 h1         1 PGL       0.078700
     28 H8           5.3360     7.2300    13.8190 h2         1 PGL       0.175700
     29 H9           2.8410     5.5430    12.8270 hc         1 PGL       0.073033
     30 H10          2.4820     6.8780    13.8950 hc         1 PGL       0.073033
     31 H11          2.9360     7.1840    12.2350 hc         1 PGL       0.073033
     32 H12          4.2380     8.0910    14.4950 ho         1 PGL       0.411000
     33 H13          9.0540     5.8270    11.2680 h2         1 PGL       0.070700
     34 H14         10.2260     7.7480    11.9440 ho         1 PGL       0.440000
     35 H15         11.2720     5.6030    13.3610 hc         1 PGL       0.058367
     36 H16         10.5690     4.2250    12.5480 hc         1 PGL       0.058367
     37 H17         11.5330     5.3730    11.6490 hc         1 PGL       0.058367
     38 H18          6.3230     1.5870    13.9160 hp         1 PGL       0.369300
     39 H19          4.1280     0.5850    11.9770 ho         1 PGL       0.437000
     40 H20          4.3570     2.2260    16.1160 h1         1 PGL       0.070700
     41 H21          3.8590     1.1200    14.8320 h1         1 PGL       0.070700
     42 H22          6.0070    -0.1430    16.0410 h1         1 PGL       0.025700
     43 H23          5.0810     0.5230    17.3710 h1         1 PGL       0.025700
@<TRIPOS>BOND
     1     1     2 1   
     2     1    12 1   
     3     1    23 1   
     4     1    24 1   
     5     2     3 1   
     6     2     8 1   
     7     2    25 1   
     8     3     4 1   
     9     3    26 1   
    10     3    27 1   
    11     4     5 1   
    12     5     6 1   
    13     5     7 1   
    14     5    28 1   
    15     6    29 1   
    16     6    30 1   
    17     6    31 1   
    18     7    32 1   
    19     8     9 1   
    20     9    10 1   
    21     9    11 1   
    22     9    33 1   
    23    10    34 1   
    24    11    35 1   
    25    11    36 1   
    26    11    37 1   
    27    12    13 1   
    28    13    14 1   
    29    13    15 1   
    30    13    17 1   
    31    13    38 1   
    32    14    39 1   
    33    15    16 1   
    34    17    18 1   
    35    18    19 1   
    36    18    40 1   
    37    18    41 1   
    38    19    20 1   
    39    19    42 1   
    40    19    43 1   
    41    20    21 1   
    42    20    22 1   
@<TRIPOS>SUBSTRUCTURE
     1 PGL         1 TEMP              0 ****  ****    0 ROOT
