@<TRIPOS>MOLECULE
pyc.pdb
 26 28 0 0 0
SMALL
GASTEIGER

@<TRIPOS>ATOM
      1  H01       -0.5670   -4.5130    7.9940 H       1  PYC1        0.0993
      2  H02        1.0300   -5.2260    7.6650 H       1  PYC1        0.0993
      3  H03        0.1400   -5.6780    9.1390 H       1  PYC1        0.0993
      4  H04       -1.1390   -4.4540   10.6700 H       1  PYC1        0.0463
      5  H05        2.2200   -4.4950    6.8340 H       1  PYC1        0.0684
      6  H06        4.5000   -0.7640    9.1670 H       1  PYC1        0.0641
      7  H07       -1.8800   -3.4670   12.8000 H       1  PYC1        0.0581
      8  H08        4.2620   -3.4870    5.8620 H       1  PYC1        0.0620
      9  H09       -0.7130   -1.6540   13.8670 H       1  PYC1        0.0653
     10  H10        5.4050   -1.6150    7.0230 H       1  PYC1        0.0618
     11  O          1.4600   -0.5760   12.8380 O.2     1  PYC1       -0.2854
     12  N          0.9980   -3.7670    9.1680 N.ar    1  PYC1       -0.1935
     13  N          2.4040   -1.5950   10.4350 N.ar    1  PYC1       -0.2313
     14  C          0.5320   -3.2410   10.3820 C.ar    1  PYC1        0.2214
     15  C          2.1720   -3.2130    8.5720 C.ar    1  PYC1        0.2333
     16  C          1.3350   -2.1010   10.9730 C.ar    1  PYC1        0.1783
     17  C          2.8420   -2.1440    9.2190 C.ar    1  PYC1        0.1358
     18  C          0.3600   -4.8660    8.4460 C.3     1  PYC1        0.1414
     19  C         -0.5480   -3.6350   11.0800 C.3     1  PYC1        0.0806
     20  C          2.7120   -3.6750    7.3570 C.ar    1  PYC1        0.0119
     21  C          0.8650   -1.4970   12.2960 C.2     1  PYC1        0.2100
     22  C          3.9960   -1.5840    8.6560 C.ar    1  PYC1       -0.0298
     23  C         -0.9860   -3.0620   12.3250 C.2     1  PYC1       -0.0661
     24  C          3.8660   -3.1070    6.8040 C.ar    1  PYC1       -0.0554
     25  C         -0.3450   -2.0570   12.9230 C.2     1  PYC1       -0.0157
     26  C          4.5080   -2.0600    7.4530 C.ar    1  PYC1       -0.0593
@<TRIPOS>UNITY_ATOM_ATTR
12 1
charge 1
@<TRIPOS>BOND
     1     1    18    1
     2     2    18    1
     3     3    18    1
     4     4    19    1
     5     5    20    1
     6     6    22    1
     7     7    23    1
     8     8    24    1
     9     9    25    1
    10    10    26    1
    11    11    21    2
    12    12    14   ar
    13    12    15   ar
    14    12    18    1
    15    13    16   ar
    16    13    17   ar
    17    14    16   ar
    18    14    19    1
    19    15    17   ar
    20    15    20   ar
    21    16    21    1
    22    17    22   ar
    23    19    23    1
    24    20    24   ar
    25    21    25    1
    26    22    26   ar
    27    23    25    2
    28    24    26   ar
