MODEL 1
REMARK VINA RESULT:    -8.016      0.000      0.000
REMARK INTER + INTRA:         -10.337
REMARK INTER:                 -10.125
REMARK INTRA:                  -0.212
REMARK UNBOUND:                -0.212
REMARK  6 active torsions:
REMARK  status: ('A' for Active; 'I' for Inactive)
REMARK    1  A    between atoms: C3_3  and  N1_4 
REMARK    2  A    between atoms: C5_6  and  C17_22 
REMARK    3  A    between atoms: C6_7  and  O1_8 
REMARK    4  A    between atoms: C10_12  and  N2_15 
REMARK    5  A    between atoms: C17_22  and  O2_23 
REMARK    6  A    between atoms: C17_22  and  O3_24 
ROOT
HETATM    1  N1  CIP     1      16.729  15.302 -14.083  1.00  0.00     0.099 N 
HETATM    2  C4  CIP     1      17.051  14.022 -14.778  1.00  0.00     0.285 C 
HETATM    3  C5  CIP     1      15.829  13.189 -15.275  1.00  0.00     0.098 C 
HETATM    4  C6  CIP     1      14.781  14.052 -16.054  1.00  0.00     0.135 C 
HETATM    5  C7  CIP     1      15.085  15.563 -15.946  1.00  0.00     0.051 C 
HETATM    6  C8  CIP     1      13.955  16.455 -16.527  1.00  0.00     0.049 C 
HETATM    7  C9  CIP     1      13.103  17.131 -15.444  1.00  0.00     0.204 C 
HETATM    8  C10 CIP     1      13.951  17.989 -14.439  1.00  0.00     0.258 C 
HETATM    9  C11 CIP     1      15.403  17.420 -14.303  1.00  0.00     0.075 C 
HETATM   10  C12 CIP     1      15.418  15.889 -14.470  1.00  0.00     0.232 C 
HETATM   11  F1  CIP     1      12.122  17.877 -16.074  1.00  0.00    -0.247 F 
ENDROOT
BRANCH   8  12
HETATM   12  N2  CIP     1      13.896  19.443 -14.792  1.00  0.00     0.099 N 
HETATM   13  C13 CIP     1      14.080  20.312 -13.592  1.00  0.00     0.302 C 
HETATM   14  C14 CIP     1      15.438  21.031 -13.571  1.00  0.00     0.299 C 
HETATM   15  N3  CIP     1      15.611  21.896 -14.748  1.00  0.00     0.086 N 
HETATM   16  C15 CIP     1      14.976  21.366 -15.968  1.00  0.00     0.299 C 
HETATM   17  H13 CIP     1      16.639  22.001 -14.922  1.00  0.00     0.315 HD
HETATM   18  C16 CIP     1      14.787  19.843 -15.913  1.00  0.00     0.302 C 
ENDBRANCH   8  12
BRANCH   1  19
HETATM   19  C3  CIP     1      16.841  15.151 -12.618  1.00  0.00     0.223 A 
HETATM   20  C1  CIP     1      17.454  16.362 -11.925  1.00  0.00     0.038 A 
HETATM   21  C2  CIP     1      18.273  15.100 -12.099  1.00  0.00     0.038 A 
ENDBRANCH   1  19
BRANCH   4  22
HETATM   22  O1  CIP     1      14.713  13.658 -17.404  1.00  0.00    -0.395 OA
HETATM   23  H4  CIP     1      14.242  14.376 -17.903  1.00  0.00     0.210 HD
ENDBRANCH   4  22
BRANCH   3  24
HETATM   24  C17 CIP     1      15.168  12.306 -14.184  1.00  0.00     0.262 C 
BRANCH  24  25
HETATM   25  O2  CIP     1      14.075  12.966 -13.592  1.00  0.00    -0.371 OA
HETATM   26  H12 CIP     1      13.552  12.293 -13.085  1.00  0.00     0.212 HD
ENDBRANCH  24  25
BRANCH  24  27
HETATM   27  O3  CIP     1      14.784  11.055 -14.692  1.00  0.00    -0.371 OA
HETATM   28  H18 CIP     1      15.612  10.617 -15.019  1.00  0.00     0.212 HD
ENDBRANCH  24  27
ENDBRANCH   3  24
TORSDOF 6
ENDMDL
