@<TRIPOS>MOLECULE
*****
   58    61     1     0     0
SMALL
bcc


@<TRIPOS>ATOM
      1 C1         -36.8620    -6.4790    43.2620 c3         1 LEV      -0.085100
      2 N1         -37.2610    -6.0440    40.8610 n3         1 LEV      -0.724600
      3 O1         -39.7100    -5.7180    42.3630 os         1 LEV      -0.391600
      4 C2         -37.5970    -6.9570    41.9920 c6         1 LEV       0.152500
      5 N2         -41.3470    -3.3690    41.9990 n3         1 LEV      -0.726600
      6 O2         -36.6010    -3.7740    37.3350 oh         1 LEV      -0.605800
      7 C3         -39.1250    -7.0440    42.2430 c6         1 LEV       0.121400
      8 N3         -42.9520    -1.6620    43.7270 n3         1 LEV      -0.720600
      9 O3         -33.9840    -5.3060    37.3240 oh         1 LEV      -0.639300
     10 C4         -39.2390    -4.6770    41.4540 c6         1 LEV       0.147100
     11 O4         -35.5860    -6.8560    36.7330 oh         1 LEV      -0.639300
     12 C5         -38.4140    -5.2920    40.2960 c6         1 LEV       0.164500
     13 C6         -36.4100    -6.6660    39.8190 c6         1 LEV       0.178800
     14 C7         -35.8680    -5.5910    38.8480 c6         1 LEV      -0.117700
     15 C8         -37.0590    -4.8110    38.2110 c6         1 LEV       0.143100
     16 C9         -37.9210    -4.1830    39.3350 c6         1 LEV      -0.088700
     17 C10        -39.1350    -3.4000    38.7740 c6         1 LEV      -0.105400
     18 C11        -39.9720    -2.7780    39.9140 c6         1 LEV       0.130600
     19 C12        -40.4520    -3.8760    40.9100 c6         1 LEV       0.163500
     20 C13        -40.7060    -2.5630    43.0770 c6         1 LEV       0.139800
     21 C14        -41.7080    -2.3020    44.2240 c6         1 LEV       0.163300
     22 C15        -43.5820    -2.4770    42.6600 c6         1 LEV       0.163300
     23 C16        -42.6010    -2.7490    41.4970 c6         1 LEV       0.139800
     24 C17        -42.7710    -0.2390    43.3580 c3         1 LEV       0.147100
     25 C18        -34.9030    -6.2600    37.8290 c3         1 LEV       0.341900
     26 F1         -39.2350    -1.8330    40.5300 f          1 LEV      -0.242300
     27 H01        -35.7830    -6.4620    43.0950 hc         1 LEV       0.042367
     28 H02        -37.1800    -5.4720    43.5440 hc         1 LEV       0.042367
     29 H03        -37.0660    -7.1500    44.0990 hc         1 LEV       0.042367
     30 H04        -37.2440    -7.9670    41.7650 h1         1 LEV       0.035700
     31 H05        -36.2970    -3.0200    37.8690 ho         1 LEV       0.406000
     32 H06        -39.6020    -7.5550    41.4020 h1         1 LEV       0.053200
     33 H07        -39.3360    -7.6080    43.1560 h1         1 LEV       0.053200
     34 H08        -33.6410    -4.8370    38.0990 ho         1 LEV       0.428000
     35 H09        -38.5830    -4.0100    42.0200 h1         1 LEV       0.081700
     36 H10        -35.8780    -7.7320    37.0180 ho         1 LEV       0.428000
     37 H11        -39.0530    -5.9810    39.7350 h1         1 LEV       0.031700
     38 H12        -36.9900    -7.4110    39.2640 h1         1 LEV       0.046700
     39 H13        -35.5650    -7.1680    40.2980 h1         1 LEV       0.046700
     40 H14        -35.2810    -4.8870    39.4450 hc         1 LEV       0.076700
     41 H15        -37.6720    -5.5080    37.6330 h1         1 LEV       0.098700
     42 H16        -37.2920    -3.4870    39.8990 hc         1 LEV       0.074700
     43 H17        -39.7640    -4.0670    38.1800 hc         1 LEV       0.064700
     44 H18        -38.7970    -2.6000    38.1110 hc         1 LEV       0.064700
     45 H19        -40.8340    -2.2730    39.4730 h1         1 LEV       0.053700
     46 H20        -41.0500    -4.5820    40.3280 h1         1 LEV       0.063700
     47 H21        -40.3550    -1.6080    42.6810 h1         1 LEV       0.039950
     48 H22        -39.8510    -3.0990    43.4960 h1         1 LEV       0.039950
     49 H23        -41.9640    -3.2610    44.6850 h1         1 LEV       0.057950
     50 H24        -41.2410    -1.6730    44.9860 h1         1 LEV       0.057950
     51 H25        -44.4740    -1.9700    42.2800 h1         1 LEV       0.057950
     52 H26        -43.8920    -3.4360    43.0840 h1         1 LEV       0.057950
     53 H27        -43.0820    -3.4210    40.7810 h1         1 LEV       0.039950
     54 H28        -42.3750    -1.8070    40.9910 h1         1 LEV       0.039950
     55 H29        -42.0770    -0.1370    42.5210 h1         1 LEV       0.031700
     56 H30        -43.7340     0.1950    43.0750 h1         1 LEV       0.031700
     57 H31        -42.3770     0.3170    44.2130 h1         1 LEV       0.031700
     58 H32        -34.3010    -7.0420    38.3160 h2         1 LEV       0.068700
@<TRIPOS>BOND
     1    11    36 1   
     2    11    25 1   
     3     6    31 1   
     4     6    15 1   
     5     9    25 1   
     6     9    34 1   
     7    41    15 1   
     8    25    58 1   
     9    25    14 1   
    10    44    17 1   
    11    43    17 1   
    12    15    14 1   
    13    15    16 1   
    14    17    16 1   
    15    17    18 1   
    16    14    40 1   
    17    14    13 1   
    18    45    18 1   
    19    16    42 1   
    20    16    12 1   
    21    38    13 1   
    22    18    26 1   
    23    18    19 1   
    24    37    12 1   
    25    13    39 1   
    26    13     2 1   
    27    46    19 1   
    28    12     2 1   
    29    12    10 1   
    30    53    23 1   
    31    19    10 1   
    32    19     5 1   
    33    54    23 1   
    34     2     4 1   
    35    23     5 1   
    36    23    22 1   
    37    10    35 1   
    38    10     3 1   
    39    32     7 1   
    40     5    20 1   
    41    30     4 1   
    42    51    22 1   
    43     4     7 1   
    44     4     1 1   
    45    22    52 1   
    46    22     8 1   
    47     7     3 1   
    48     7    33 1   
    49    47    20 1   
    50    56    24 1   
    51    55    24 1   
    52    20    48 1   
    53    20    21 1   
    54    27     1 1   
    55     1    29 1   
    56     1    28 1   
    57    24     8 1   
    58    24    57 1   
    59     8    21 1   
    60    21    49 1   
    61    21    50 1   
@<TRIPOS>SUBSTRUCTURE
     1 LEV         1 TEMP              0 ****  ****    0 ROOT
