MODEL 1
REMARK VINA RESULT:    -8.717      0.000      0.000
REMARK INTER + INTRA:         -10.291
REMARK INTER:                  -9.991
REMARK INTRA:                  -0.300
REMARK UNBOUND:                -0.300
REMARK  4 active torsions:
REMARK  status: ('A' for Active; 'I' for Inactive)
REMARK    1  A    between atoms: C3_3  and  O5_20 
REMARK    2  A    between atoms: C6_6  and  C7_7 
REMARK    3  A    between atoms: C11_12  and  O4_19 
REMARK    4  A    between atoms: C13_14  and  O3_18 
ROOT
HETATM    1  C7  API     1       8.787  62.278  30.255  1.00  0.00     0.090 A 
HETATM    2  C8  API     1       9.797  62.310  29.373  1.00  0.00     0.094 A 
HETATM    3  C9  API     1      11.076  61.682  29.733  1.00  0.00     0.190 A 
HETATM    4  O1  API     1      12.034  61.687  28.968  1.00  0.00    -0.287 OA
HETATM    5  C10 API     1      11.162  61.046  31.052  1.00  0.00     0.081 A 
HETATM    6  C11 API     1      12.333  60.421  31.492  1.00  0.00     0.085 A 
HETATM    7  C12 API     1      12.380  59.825  32.751  1.00  0.00     0.074 A 
HETATM    8  C13 API     1      11.248  59.860  33.561  1.00  0.00     0.071 A 
HETATM    9  C14 API     1      10.076  60.480  33.133  1.00  0.00     0.075 A 
HETATM   10  C15 API     1      10.036  61.075  31.872  1.00  0.00     0.095 A 
HETATM   11  O2  API     1       8.856  61.669  31.499  1.00  0.00    -0.309 OA
ENDROOT
BRANCH   1  12
HETATM   12  C6  API     1       7.474  62.881  29.951  1.00  0.00    -0.002 A 
HETATM   13  C1  API     1       7.400  64.031  29.148  1.00  0.00     0.017 A 
HETATM   14  C2  API     1       6.166  64.614  28.839  1.00  0.00     0.037 A 
HETATM   15  C3  API     1       4.999  64.041  29.330  1.00  0.00     0.065 A 
HETATM   16  C4  API     1       5.046  62.898  30.117  1.00  0.00     0.037 A 
HETATM   17  C5  API     1       6.278  62.317  30.424  1.00  0.00     0.017 A 
BRANCH  15  18
HETATM   18  O5  API     1       3.775  64.573  29.055  1.00  0.00    -0.361 OA
HETATM   19  H10 API     1       3.371  64.871  29.887  1.00  0.00     0.217 HD
ENDBRANCH  15  18
ENDBRANCH   1  12
BRANCH   6  20
HETATM   20  O4  API     1      13.473  60.357  30.737  1.00  0.00    -0.360 OA
HETATM   21  H9  API     1      14.176  60.869  31.198  1.00  0.00     0.217 HD
ENDBRANCH   6  20
BRANCH   8  22
HETATM   22  O3  API     1      11.246  59.291  34.800  1.00  0.00    -0.361 OA
HETATM   23  H8  API     1      12.039  59.583  35.280  1.00  0.00     0.217 HD
ENDBRANCH   8  22
TORSDOF 4
ENDMDL
