MODEL 1
REMARK VINA RESULT:   -10.538      0.000      0.000
REMARK INTER + INTRA:         -16.239
REMARK INTER:                 -14.851
REMARK INTRA:                  -1.388
REMARK UNBOUND:                -1.388
REMARK  10 active torsions:
REMARK  status: ('A' for Active; 'I' for Inactive)
REMARK    1  A    between atoms: C4_4  and  C7_7 
REMARK    2  A    between atoms: C11_12  and  O11_32 
REMARK    3  A    between atoms: C12_13  and  O10_31 
REMARK    4  A    between atoms: C13_14  and  O3_18 
REMARK    5  A    between atoms: O3_18  and  C16_19 
REMARK    6  A    between atoms: C17_20  and  O9_30 
REMARK    7  A    between atoms: C18_21  and  O8_29 
REMARK    8  A    between atoms: C19_22  and  O7_28 
REMARK    9  A    between atoms: C20_23  and  C21_25 
REMARK   10  A    between atoms: C21_25  and  O6_27 
ROOT
HETATM    1  C7  BAI     1       5.459  66.145  28.488  1.00  0.00     0.090 A 
HETATM    2  C8  BAI     1       4.307  65.553  28.838  1.00  0.00     0.094 A 
HETATM    3  C9  BAI     1       4.355  64.317  29.631  1.00  0.00     0.190 A 
HETATM    4  O1  BAI     1       3.338  63.731  29.983  1.00  0.00    -0.287 OA
HETATM    5  C10 BAI     1       5.679  63.803  29.989  1.00  0.00     0.084 A 
HETATM    6  C11 BAI     1       5.833  62.634  30.735  1.00  0.00     0.118 A 
HETATM    7  C12 BAI     1       7.112  62.174  31.055  1.00  0.00     0.134 A 
HETATM    8  C13 BAI     1       8.241  62.885  30.643  1.00  0.00     0.110 A 
HETATM    9  C14 BAI     1       8.079  64.043  29.875  1.00  0.00     0.078 A 
HETATM   10  C15 BAI     1       6.800  64.506  29.557  1.00  0.00     0.096 A 
HETATM   11  O2  BAI     1       6.716  65.655  28.813  1.00  0.00    -0.309 OA
ENDROOT
BRANCH   8  12
HETATM   12  O3  BAI     1       9.533  62.495  30.861  1.00  0.00    -0.315 OA
BRANCH  12  13
HETATM   13  C16 BAI     1       9.918  61.292  30.185  1.00  0.00     0.299 C 
HETATM   14  C17 BAI     1      11.390  61.439  29.732  1.00  0.00     0.205 C 
HETATM   15  C18 BAI     1      12.270  60.397  30.409  1.00  0.00     0.183 C 
HETATM   16  C19 BAI     1      12.018  60.410  31.914  1.00  0.00     0.189 C 
HETATM   17  C20 BAI     1      10.538  60.114  32.214  1.00  0.00     0.253 C 
HETATM   18  O4  BAI     1       9.723  60.149  31.035  1.00  0.00    -0.340 OA
BRANCH  14  19
HETATM   19  O9  BAI     1      11.541  61.283  28.309  1.00  0.00    -0.388 OA
HETATM   20  H16 BAI     1      11.049  60.464  28.090  1.00  0.00     0.210 HD
ENDBRANCH  14  19
BRANCH  15  21
HETATM   21  O8  BAI     1      13.657  60.688  30.161  1.00  0.00    -0.390 OA
HETATM   22  H15 BAI     1      13.888  60.149  29.378  1.00  0.00     0.210 HD
ENDBRANCH  15  21
BRANCH  16  23
HETATM   23  O7  BAI     1      12.869  59.418  32.516  1.00  0.00    -0.390 OA
HETATM   24  H14 BAI     1      12.749  59.536  33.481  1.00  0.00     0.210 HD
ENDBRANCH  16  23
BRANCH  17  25
HETATM   25  C21 BAI     1       9.972  60.965  33.360  1.00  0.00     0.172 C 
HETATM   26  O5  BAI     1       9.033  60.679  34.090  1.00  0.00    -0.648 OA
BRANCH  25  27
HETATM   27  O6  BAI     1      10.657  62.101  33.594  1.00  0.00    -0.774 OA
HETATM   28  H13 BAI     1      10.812  62.476  32.702  1.00  0.00     0.167 HD
ENDBRANCH  25  27
ENDBRANCH  17  25
ENDBRANCH  12  13
ENDBRANCH   8  12
BRANCH   7  29
HETATM   29  O10 BAI     1       7.213  61.003  31.764  1.00  0.00    -0.356 OA
HETATM   30  H17 BAI     1       6.314  60.609  31.692  1.00  0.00     0.218 HD
ENDBRANCH   7  29
BRANCH   6  31
HETATM   31  O11 BAI     1       4.778  61.876  31.180  1.00  0.00    -0.357 OA
HETATM   32  H18 BAI     1       4.469  61.321  30.424  1.00  0.00     0.217 HD
ENDBRANCH   6  31
BRANCH   1  33
HETATM   33  C4  BAI     1       5.482  67.382  27.684  1.00  0.00    -0.002 A 
HETATM   34  C3  BAI     1       5.694  67.354  26.297  1.00  0.00     0.014 A 
HETATM   35  C2  BAI     1       5.705  68.537  25.552  1.00  0.00     0.001 A 
HETATM   36  C1  BAI     1       5.498  69.761  26.182  1.00  0.00     0.000 A 
HETATM   37  C6  BAI     1       5.276  69.805  27.556  1.00  0.00     0.001 A 
HETATM   38  C5  BAI     1       5.265  68.624  28.301  1.00  0.00     0.014 A 
ENDBRANCH   1  33
TORSDOF 10
ENDMDL
