MODEL 1
REMARK VINA RESULT:    -9.385      0.000      0.000
REMARK INTER + INTRA:         -10.487
REMARK INTER:                 -10.482
REMARK INTRA:                  -0.005
REMARK UNBOUND:                -0.005
REMARK  2 active torsions:
REMARK  status: ('A' for Active; 'I' for Inactive)
REMARK    1  A    between atoms: O1_2  and  C2_3 
REMARK    2  A    between atoms: C3_4  and  O4_24 
ROOT
HETATM    1  C2  BER     1      10.284  60.343  30.693  1.00  0.00     0.102 A 
HETATM    2  C3  BER     1       8.889  60.427  30.873  1.00  0.00     0.114 A 
HETATM    3  C4  BER     1       8.149  61.481  30.276  1.00  0.00     0.026 A 
HETATM    4  C5  BER     1       6.773  61.639  30.470  1.00  0.00     0.106 A 
HETATM    5  N1  BER     1       6.072  62.647  29.901  1.00  0.00    -0.355 N 
HETATM    6  C6  BER     1       6.681  63.550  29.081  1.00  0.00     0.046 A 
HETATM    7  C7  BER     1       8.061  63.440  28.862  1.00  0.00     0.043 A 
HETATM    8  C8  BER     1       8.801  62.413  29.456  1.00  0.00    -0.019 A 
HETATM    9  C9  BER     1      10.181  62.298  29.250  1.00  0.00     0.015 A 
HETATM   10  C10 BER     1      10.912  61.278  29.865  1.00  0.00     0.040 A 
HETATM   11  C11 BER     1       5.829  64.614  28.511  1.00  0.00    -0.000 A 
HETATM   12  C12 BER     1       6.204  65.346  27.366  1.00  0.00     0.054 A 
HETATM   13  C13 BER     1       5.375  66.354  26.914  1.00  0.00     0.105 A 
HETATM   14  C14 BER     1       4.199  66.666  27.543  1.00  0.00     0.105 A 
HETATM   15  C15 BER     1       3.775  65.980  28.657  1.00  0.00     0.047 A 
HETATM   16  C16 BER     1       4.589  64.938  29.132  1.00  0.00    -0.041 A 
HETATM   17  C17 BER     1       4.169  64.148  30.340  1.00  0.00     0.060 C 
HETATM   18  C18 BER     1       4.607  62.707  30.151  1.00  0.00     0.133 C 
HETATM   19  O2  BER     1       3.540  67.689  26.940  1.00  0.00    -0.323 OA
HETATM   20  C19 BER     1       4.442  67.994  25.854  1.00  0.00     0.352 A 
HETATM   21  O3  BER     1       5.609  67.141  25.831  1.00  0.00    -0.323 OA
ENDROOT
BRANCH   1  22
HETATM   22  O1  BER     1      10.955  59.360  31.365  1.00  0.00    -0.353 OA
HETATM   23  C1  BER     1      11.973  59.740  32.284  1.00  0.00     0.210 C 
ENDBRANCH   1  22
BRANCH   2  24
HETATM   24  O4  BER     1       8.134  59.580  31.656  1.00  0.00    -0.352 OA
HETATM   25  C20 BER     1       8.280  59.706  33.070  1.00  0.00     0.210 C 
ENDBRANCH   2  24
TORSDOF 2
ENDMDL
