MODEL 1
REMARK VINA RESULT:    -9.085      0.000      0.000
REMARK INTER + INTRA:         -11.313
REMARK INTER:                 -10.944
REMARK INTRA:                  -0.369
REMARK UNBOUND:                -0.369
REMARK  6 active torsions:
REMARK  status: ('A' for Active; 'I' for Inactive)
REMARK    1  A    between atoms: C2_2  and  O6_21 
REMARK    2  A    between atoms: C3_3  and  C10_13 
REMARK    3  A    between atoms: C6_7  and  O3_12 
REMARK    4  A    between atoms: C8_9  and  O2_11 
REMARK    5  A    between atoms: C12_15  and  O5_20 
REMARK    6  A    between atoms: C13_16  and  O4_19 
ROOT
HETATM    1  C1  CAT     1      11.155  61.648  31.430  1.00  0.00     0.079 C 
HETATM    2  C2  CAT     1      10.271  62.444  30.472  1.00  0.00     0.156 C 
HETATM    3  C3  CAT     1       8.798  62.145  30.807  1.00  0.00     0.191 C 
HETATM    4  O1  CAT     1       8.489  60.755  30.639  1.00  0.00    -0.338 OA
HETATM    5  C4  CAT     1       9.375  59.885  31.215  1.00  0.00     0.081 A 
HETATM    6  C5  CAT     1       8.918  58.573  31.350  1.00  0.00     0.074 A 
HETATM    7  C6  CAT     1       9.739  57.612  31.924  1.00  0.00     0.071 A 
HETATM    8  C7  CAT     1      11.013  57.945  32.366  1.00  0.00     0.073 A 
HETATM    9  C8  CAT     1      11.467  59.255  32.219  1.00  0.00     0.077 A 
HETATM   10  C9  CAT     1      10.668  60.241  31.621  1.00  0.00     0.011 A 
ENDROOT
BRANCH   3  11
HETATM   11  C10 CAT     1       7.853  62.935  29.911  1.00  0.00    -0.024 A 
HETATM   12  C11 CAT     1       7.750  62.650  28.539  1.00  0.00     0.049 A 
HETATM   13  C12 CAT     1       6.904  63.405  27.740  1.00  0.00     0.099 A 
HETATM   14  C13 CAT     1       6.148  64.442  28.279  1.00  0.00     0.098 A 
HETATM   15  C14 CAT     1       6.233  64.740  29.633  1.00  0.00     0.040 A 
HETATM   16  C15 CAT     1       7.087  63.988  30.446  1.00  0.00     0.013 A 
BRANCH  13  17
HETATM   17  O5  CAT     1       6.820  63.122  26.407  1.00  0.00    -0.358 OA
HETATM   18  H13 CAT     1       5.861  63.123  26.216  1.00  0.00     0.217 HD
ENDBRANCH  13  17
BRANCH  14  19
HETATM   19  O4  CAT     1       5.334  65.143  27.433  1.00  0.00    -0.358 OA
HETATM   20  H12 CAT     1       4.640  65.569  27.964  1.00  0.00     0.217 HD
ENDBRANCH  14  19
ENDBRANCH   3  11
BRANCH   2  21
HETATM   21  O6  CAT     1      10.597  63.830  30.622  1.00  0.00    -0.392 OA
HETATM   22  H14 CAT     1      11.218  63.896  31.371  1.00  0.00     0.210 HD
ENDBRANCH   2  21
BRANCH   9  23
HETATM   23  O2  CAT     1      12.726  59.501  32.692  1.00  0.00    -0.360 OA
HETATM   24  H7  CAT     1      13.049  60.348  32.346  1.00  0.00     0.217 HD
ENDBRANCH   9  23
BRANCH   7  25
HETATM   25  O3  CAT     1       9.253  56.344  32.043  1.00  0.00    -0.361 OA
HETATM   26  H8  CAT     1       8.447  56.271  31.506  1.00  0.00     0.217 HD
ENDBRANCH   7  25
TORSDOF 6
ENDMDL
