MODEL 1
REMARK VINA RESULT:    -8.950      0.000      0.000
REMARK INTER + INTRA:         -15.372
REMARK INTER:                 -13.658
REMARK INTRA:                  -1.714
REMARK UNBOUND:                -1.714
REMARK  10 active torsions:
REMARK  status: ('A' for Active; 'I' for Inactive)
REMARK    1  A    between atoms: O1_2  and  C2_3 
REMARK    2  A    between atoms: C3_4  and  O6_27 
REMARK    3  A    between atoms: C6_7  and  C8_9 
REMARK    4  A    between atoms: C9_10  and  C10_11 
REMARK    5  A    between atoms: C10_11  and  C11_13 
REMARK    6  A    between atoms: C11_13  and  C12_14 
REMARK    7  A    between atoms: C12_14  and  C13_16 
REMARK    8  A    between atoms: C14_17  and  C15_18 
REMARK    9  A    between atoms: C17_20  and  O5_25 
REMARK   10  A    between atoms: C18_21  and  O4_24 
ROOT
HETATM    1  C11 CUR     1       6.902  64.349  28.588  1.00  0.00     0.165 C 
ENDROOT
BRANCH   1   2
HETATM    2  C10 CUR     1       7.500  63.016  28.212  1.00  0.00     0.156 C 
HETATM    3  O2  CUR     1       7.088  62.339  27.271  1.00  0.00    -0.293 OA
BRANCH   2   4
HETATM    4  C9  CUR     1       8.623  62.461  29.021  1.00  0.00     0.051 C 
HETATM    5  C8  CUR     1       8.604  61.271  29.640  1.00  0.00     0.015 C 
BRANCH   5   6
HETATM    6  C6  CUR     1       9.741  60.757  30.420  1.00  0.00    -0.033 A 
HETATM    7  C5  CUR     1      10.943  61.469  30.534  1.00  0.00     0.014 A 
HETATM    8  C4  CUR     1      11.991  60.967  31.306  1.00  0.00     0.040 A 
HETATM    9  C3  CUR     1      11.836  59.754  31.975  1.00  0.00     0.099 A 
HETATM   10  C2  CUR     1      10.639  59.030  31.889  1.00  0.00     0.102 A 
HETATM   11  C7  CUR     1       9.594  59.544  31.113  1.00  0.00     0.051 A 
BRANCH   9  12
HETATM   12  O6  CUR     1      12.864  59.260  32.733  1.00  0.00    -0.358 OA
HETATM   13  H20 CUR     1      13.444  59.989  33.000  1.00  0.00     0.217 HD
ENDBRANCH   9  12
BRANCH  10  14
HETATM   14  O1  CUR     1      10.594  57.854  32.591  1.00  0.00    -0.353 OA
HETATM   15  C1  CUR     1      10.099  56.704  31.921  1.00  0.00     0.210 C 
ENDBRANCH  10  14
ENDBRANCH   5   6
ENDBRANCH   2   4
ENDBRANCH   1   2
BRANCH   1  16
HETATM   16  C12 CUR     1       6.603  64.531  30.055  1.00  0.00     0.156 C 
HETATM   17  O3  CUR     1       5.448  64.688  30.450  1.00  0.00    -0.293 OA
BRANCH  16  18
HETATM   18  C13 CUR     1       7.755  64.600  31.001  1.00  0.00     0.051 C 
HETATM   19  C14 CUR     1       7.834  63.754  32.038  1.00  0.00     0.015 C 
BRANCH  19  20
HETATM   20  C15 CUR     1       8.947  63.763  32.995  1.00  0.00    -0.033 A 
HETATM   21  C16 CUR     1       9.445  62.574  33.558  1.00  0.00     0.051 A 
HETATM   22  C17 CUR     1      10.490  62.614  34.483  1.00  0.00     0.102 A 
HETATM   23  C18 CUR     1      11.024  63.856  34.844  1.00  0.00     0.099 A 
HETATM   24  C19 CUR     1      10.534  65.041  34.313  1.00  0.00     0.040 A 
HETATM   25  C20 CUR     1       9.487  64.994  33.391  1.00  0.00     0.014 A 
BRANCH  22  26
HETATM   26  O5  CUR     1      11.069  61.534  35.099  1.00  0.00    -0.353 OA
HETATM   27  C21 CUR     1      10.235  60.400  35.313  1.00  0.00     0.210 C 
ENDBRANCH  22  26
BRANCH  23  28
HETATM   28  O4  CUR     1      12.050  63.928  35.747  1.00  0.00    -0.358 OA
HETATM   29  H16 CUR     1      11.692  64.448  36.492  1.00  0.00     0.217 HD
ENDBRANCH  23  28
ENDBRANCH  19  20
ENDBRANCH  16  18
ENDBRANCH   1  16
TORSDOF 10
ENDMDL
