MODEL 1
REMARK VINA RESULT:    -7.160      0.000      0.000
REMARK INTER + INTRA:          -8.461
REMARK INTER:                  -8.415
REMARK INTRA:                  -0.046
REMARK UNBOUND:                -0.046
REMARK  5 active torsions:
REMARK  status: ('A' for Active; 'I' for Inactive)
REMARK    1  A    between atoms: C2_2  and  C7_10 
REMARK    2  A    between atoms: C4_4  and  O3_9 
REMARK    3  A    between atoms: C5_5  and  O2_8 
REMARK    4  A    between atoms: C6_6  and  O1_7 
REMARK    5  A    between atoms: C7_10  and  O5_12 
ROOT
HETATM    1  C1  GAL     1      18.567  52.632  37.735  1.00  0.00     0.057 A 
HETATM    2  C2  GAL     1      18.729  53.135  36.432  1.00  0.00     0.043 A 
HETATM    3  C3  GAL     1      17.781  54.015  35.889  1.00  0.00     0.057 A 
HETATM    4  C4  GAL     1      16.681  54.384  36.652  1.00  0.00     0.102 A 
HETATM    5  C5  GAL     1      16.518  53.889  37.939  1.00  0.00     0.132 A 
HETATM    6  C6  GAL     1      17.457  53.018  38.480  1.00  0.00     0.102 A 
ENDROOT
BRANCH   2   7
HETATM    7  C7  GAL     1      19.893  52.761  35.592  1.00  0.00     0.176 C 
HETATM    8  O4  GAL     1      19.933  51.855  34.783  1.00  0.00    -0.646 OA
BRANCH   7   9
HETATM    9  O5  GAL     1      20.962  53.548  35.809  1.00  0.00    -0.773 OA
HETATM   10  H6  GAL     1      21.098  53.991  34.945  1.00  0.00     0.167 HD
ENDBRANCH   7   9
ENDBRANCH   2   7
BRANCH   6  11
HETATM   11  O1  GAL     1      17.243  52.564  39.752  1.00  0.00    -0.358 OA
HETATM   12  H3  GAL     1      17.826  51.799  39.909  1.00  0.00     0.217 HD
ENDBRANCH   6  11
BRANCH   4  13
HETATM   13  O3  GAL     1      15.756  55.239  36.128  1.00  0.00    -0.358 OA
HETATM   14  H5  GAL     1      15.092  54.659  35.701  1.00  0.00     0.217 HD
ENDBRANCH   4  13
BRANCH   5  15
HETATM   15  O2  GAL     1      15.424  54.272  38.666  1.00  0.00    -0.356 OA
HETATM   16  H4  GAL     1      15.668  54.074  39.594  1.00  0.00     0.218 HD
ENDBRANCH   5  15
TORSDOF 5
ENDMDL
