MODEL 1
REMARK VINA RESULT:    -8.869      0.000      0.000
REMARK INTER + INTRA:         -12.115
REMARK INTER:                 -11.461
REMARK INTRA:                  -0.654
REMARK UNBOUND:                -0.654
REMARK  6 active torsions:
REMARK  status: ('A' for Active; 'I' for Inactive)
REMARK    1  A    between atoms: C3_3  and  C4_4 
REMARK    2  A    between atoms: C4_4  and  C5_5 
REMARK    3  A    between atoms: C5_5  and  C6_6 
REMARK    4  A    between atoms: C6_6  and  C8_8 
REMARK    5  A    between atoms: C6_6  and  O2_31 
REMARK    6  A    between atoms: C23_23  and  O1_27 
ROOT
HETATM    1  C8  GIN     1       6.618  62.310  30.018  1.00  0.00     0.024 C 
HETATM    2  C9  GIN     1       6.846  63.349  31.118  1.00  0.00     0.009 C 
HETATM    3  C10 GIN     1       5.579  64.195  31.058  1.00  0.00     0.011 C 
HETATM    4  C11 GIN     1       5.192  64.283  29.551  1.00  0.00    -0.032 C 
HETATM    5  C12 GIN     1       6.087  63.189  28.844  1.00  0.00     0.001 C 
HETATM    6  C13 GIN     1       7.133  63.792  27.912  1.00  0.00     0.006 C 
HETATM    7  C14 GIN     1       6.517  64.710  26.854  1.00  0.00     0.006 C 
HETATM    8  C15 GIN     1       5.367  65.622  27.355  1.00  0.00     0.003 C 
HETATM    9  C16 GIN     1       5.366  65.767  28.920  1.00  0.00    -0.032 C 
HETATM   10  C17 GIN     1       4.176  66.674  29.356  1.00  0.00     0.011 C 
HETATM   11  C18 GIN     1       4.032  67.981  28.571  1.00  0.00     0.007 C 
HETATM   12  C19 GIN     1       3.917  67.712  27.057  1.00  0.00     0.004 C 
HETATM   13  C20 GIN     1       5.180  66.961  26.507  1.00  0.00    -0.035 C 
HETATM   14  C21 GIN     1       4.938  66.567  25.010  1.00  0.00     0.012 C 
HETATM   15  C22 GIN     1       3.772  67.284  24.322  1.00  0.00     0.033 C 
HETATM   16  C23 GIN     1       3.675  68.760  24.691  1.00  0.00     0.126 C 
HETATM   17  C24 GIN     1       3.439  68.967  26.221  1.00  0.00    -0.017 C 
HETATM   18  C25 GIN     1       4.054  70.299  26.703  1.00  0.00     0.018 C 
HETATM   19  C26 GIN     1       1.901  69.103  26.424  1.00  0.00     0.018 C 
HETATM   20  C27 GIN     1       6.441  67.857  26.561  1.00  0.00     0.016 C 
HETATM   21  C28 GIN     1       6.678  66.468  29.399  1.00  0.00     0.016 C 
HETATM   22  C29 GIN     1       3.724  63.762  29.458  1.00  0.00     0.016 C 
ENDROOT
BRANCH   1  23
HETATM   23  C6  GIN     1       7.805  61.341  29.776  1.00  0.00     0.058 C 
HETATM   24  C7  GIN     1       8.020  60.424  30.990  1.00  0.00     0.046 C 
BRANCH  23  25
HETATM   25  C5  GIN     1       9.117  62.078  29.384  1.00  0.00     0.041 C 
BRANCH  25  26
HETATM   26  C4  GIN     1      10.241  62.190  30.421  1.00  0.00     0.030 C 
BRANCH  26  27
HETATM   27  C3  GIN     1      10.150  63.372  31.341  1.00  0.00    -0.025 C 
HETATM   28  C2  GIN     1      10.083  63.353  32.687  1.00  0.00    -0.091 C 
HETATM   29  C1  GIN     1      10.021  64.635  33.474  1.00  0.00     0.042 C 
HETATM   30  C30 GIN     1      10.056  62.106  33.528  1.00  0.00     0.042 C 
ENDBRANCH  26  27
ENDBRANCH  25  26
ENDBRANCH  23  25
BRANCH  23  31
HETATM   31  O2  GIN     1       7.501  60.495  28.656  1.00  0.00    -0.390 OA
HETATM   32  H49 GIN     1       8.031  59.684  28.739  1.00  0.00     0.210 HD
ENDBRANCH  23  31
ENDBRANCH   1  23
BRANCH  16  33
HETATM   33  O1  GIN     1       4.846  69.432  24.235  1.00  0.00    -0.395 OA
HETATM   34  H39 GIN     1       4.638  69.843  23.378  1.00  0.00     0.210 HD
ENDBRANCH  16  33
TORSDOF 6
ENDMDL
