MODEL 1
REMARK VINA RESULT:    -7.941      0.000      0.000
REMARK INTER + INTRA:         -15.646
REMARK INTER:                 -13.048
REMARK INTRA:                  -2.598
REMARK UNBOUND:                -2.598
REMARK  15 active torsions:
REMARK  status: ('A' for Active; 'I' for Inactive)
REMARK    1  A    between atoms: C5_5  and  C42_56 
REMARK    2  A    between atoms: C15_16  and  O2_29 
REMARK    3  A    between atoms: O2_29  and  C28_30 
REMARK    4  A    between atoms: C29_31  and  O8_41 
REMARK    5  A    between atoms: C30_32  and  O7_40 
REMARK    6  A    between atoms: C31_33  and  O6_39 
REMARK    7  A    between atoms: C32_34  and  C33_36 
REMARK    8  A    between atoms: C33_36  and  O5_38 
REMARK    9  A    between atoms: O8_41  and  C34_42 
REMARK   10  A    between atoms: C35_43  and  O14_53 
REMARK   11  A    between atoms: C36_44  and  O13_52 
REMARK   12  A    between atoms: C37_45  and  O12_51 
REMARK   13  A    between atoms: C38_46  and  C39_48 
REMARK   14  A    between atoms: C39_48  and  O11_50 
REMARK   15  A    between atoms: C42_56  and  O16_58 
ROOT
HETATM    1  C1  GRA     1       0.893  51.050  55.494  1.00  0.00     0.016 C 
HETATM    2  C2  GRA     1       1.722  49.734  55.435  1.00  0.00    -0.036 C 
HETATM    3  C3  GRA     1       3.162  50.090  54.985  1.00  0.00     0.011 C 
HETATM    4  C4  GRA     1       3.270  50.587  53.544  1.00  0.00     0.021 C 
HETATM    5  C5  GRA     1       2.641  49.626  52.518  1.00  0.00     0.042 C 
HETATM    6  C6  GRA     1       1.202  49.263  52.964  1.00  0.00     0.030 C 
HETATM    7  C7  GRA     1       1.042  48.744  54.422  1.00  0.00     0.025 C 
HETATM    8  C8  GRA     1       1.303  47.237  54.650  1.00  0.00    -0.062 C 
HETATM    9  C9  GRA     1       1.186  46.332  53.657  1.00  0.00     0.054 C 
HETATM   10  C10 GRA     1       1.183  44.856  53.862  1.00  0.00     0.155 C 
HETATM   11  O1  GRA     1       1.195  44.153  52.854  1.00  0.00    -0.293 OA
HETATM   12  C11 GRA     1       1.203  44.298  55.294  1.00  0.00     0.077 C 
HETATM   13  C12 GRA     1       0.671  42.810  55.473  1.00  0.00    -0.028 C 
HETATM   14  C13 GRA     1       1.540  41.837  54.621  1.00  0.00     0.013 C 
HETATM   15  C14 GRA     1       1.318  40.360  54.925  1.00  0.00     0.034 C 
HETATM   16  C15 GRA     1       1.532  40.011  56.396  1.00  0.00     0.133 C 
HETATM   17  C16 GRA     1       0.663  40.894  57.347  1.00  0.00    -0.017 C 
HETATM   18  C17 GRA     1       0.899  42.410  56.983  1.00  0.00     0.005 C 
HETATM   19  C18 GRA     1       0.230  43.414  57.942  1.00  0.00     0.007 C 
HETATM   20  C19 GRA     1       0.787  44.829  57.746  1.00  0.00     0.011 C 
HETATM   21  C20 GRA     1       0.647  45.378  56.301  1.00  0.00    -0.021 C 
HETATM   22  C21 GRA     1       1.493  46.748  56.095  1.00  0.00    -0.012 C 
HETATM   23  C22 GRA     1       1.034  47.858  57.079  1.00  0.00     0.015 C 
HETATM   24  C23 GRA     1       1.767  49.185  56.890  1.00  0.00     0.011 C 
HETATM   25  C24 GRA     1       3.020  46.517  56.315  1.00  0.00     0.021 C 
HETATM   26  C25 GRA     1      -0.871  45.666  56.078  1.00  0.00     0.017 C 
HETATM   27  C26 GRA     1       1.159  40.623  58.796  1.00  0.00     0.018 C 
HETATM   28  C27 GRA     1      -0.820  40.474  57.314  1.00  0.00     0.018 C 
HETATM   29  C40 GRA     1      -0.795  42.683  54.998  1.00  0.00     0.016 C 
HETATM   30  C41 GRA     1       3.519  48.382  52.318  1.00  0.00     0.026 C 
ENDROOT
BRANCH  16  31
HETATM   31  O2  GRA     1       1.226  38.619  56.590  1.00  0.00    -0.352 OA
BRANCH  31  32
HETATM   32  C28 GRA     1       2.334  37.749  56.288  1.00  0.00     0.293 C 
HETATM   33  C29 GRA     1       1.824  36.322  56.011  1.00  0.00     0.211 C 
HETATM   34  C30 GRA     1       1.020  35.828  57.225  1.00  0.00     0.183 C 
HETATM   35  C31 GRA     1       1.572  36.362  58.559  1.00  0.00     0.189 C 
HETATM   36  C32 GRA     1       3.021  36.857  58.442  1.00  0.00     0.253 C 
HETATM   37  O3  GRA     1       3.235  37.810  57.393  1.00  0.00    -0.340 OA
BRANCH  33  38
HETATM   38  O8  GRA     1       0.954  36.273  54.860  1.00  0.00    -0.346 OA
BRANCH  38  39
HETATM   39  C34 GRA     1       1.436  35.391  53.835  1.00  0.00     0.293 C 
HETATM   40  C35 GRA     1       2.696  36.045  53.254  1.00  0.00     0.204 C 
HETATM   41  C36 GRA     1       3.191  35.236  52.052  1.00  0.00     0.183 C 
HETATM   42  C37 GRA     1       2.833  33.745  52.148  1.00  0.00     0.189 C 
HETATM   43  C38 GRA     1       2.598  33.285  53.595  1.00  0.00     0.253 C 
HETATM   44  O9  GRA     1       1.725  34.111  54.378  1.00  0.00    -0.340 OA
BRANCH  40  45
HETATM   45  O14 GRA     1       2.457  37.400  52.837  1.00  0.00    -0.388 OA
HETATM   46  H55 GRA     1       2.919  37.950  53.503  1.00  0.00     0.210 HD
ENDBRANCH  40  45
BRANCH  41  47
HETATM   47  O13 GRA     1       4.609  35.394  51.923  1.00  0.00    -0.390 OA
HETATM   48  H54 GRA     1       4.741  36.185  51.364  1.00  0.00     0.210 HD
ENDBRANCH  41  47
BRANCH  42  49
HETATM   49  O12 GRA     1       1.621  33.514  51.404  1.00  0.00    -0.390 OA
HETATM   50  H53 GRA     1       0.892  33.470  52.050  1.00  0.00     0.210 HD
ENDBRANCH  42  49
BRANCH  43  51
HETATM   51  C39 GRA     1       3.959  33.018  54.243  1.00  0.00     0.172 C 
HETATM   52  O10 GRA     1       4.984  32.727  53.646  1.00  0.00    -0.648 OA
BRANCH  51  53
HETATM   53  O11 GRA     1       3.970  33.159  55.582  1.00  0.00    -0.774 OA
HETATM   54  H52 GRA     1       4.885  33.434  55.807  1.00  0.00     0.167 HD
ENDBRANCH  51  53
ENDBRANCH  43  51
ENDBRANCH  38  39
ENDBRANCH  33  38
BRANCH  34  55
HETATM   55  O7  GRA     1       1.048  34.389  57.229  1.00  0.00    -0.390 OA
HETATM   56  H46 GRA     1       1.966  34.127  57.429  1.00  0.00     0.210 HD
ENDBRANCH  34  55
BRANCH  35  57
HETATM   57  O6  GRA     1       0.733  37.436  59.019  1.00  0.00    -0.390 OA
HETATM   58  H45 GRA     1       1.335  38.164  59.287  1.00  0.00     0.210 HD
ENDBRANCH  35  57
BRANCH  36  59
HETATM   59  C33 GRA     1       3.986  35.677  58.331  1.00  0.00     0.172 C 
HETATM   60  O4  GRA     1       3.690  34.492  58.296  1.00  0.00    -0.648 OA
BRANCH  59  61
HETATM   61  O5  GRA     1       5.279  36.048  58.243  1.00  0.00    -0.774 OA
HETATM   62  H44 GRA     1       5.404  36.651  59.008  1.00  0.00     0.167 HD
ENDBRANCH  59  61
ENDBRANCH  36  59
ENDBRANCH  31  32
ENDBRANCH  16  31
BRANCH   5  63
HETATM   63  C42 GRA     1       2.553  50.324  51.159  1.00  0.00     0.148 C 
HETATM   64  O15 GRA     1       1.539  50.546  50.519  1.00  0.00    -0.649 OA
BRANCH  63  65
HETATM   65  O16 GRA     1       3.752  50.668  50.651  1.00  0.00    -0.776 OA
HETATM   66  H62 GRA     1       3.562  50.859  49.708  1.00  0.00     0.167 HD
ENDBRANCH  63  65
ENDBRANCH   5  63
TORSDOF 15
ENDMDL
