MODEL 1
REMARK VINA RESULT:   -10.390      0.000      0.000
REMARK INTER + INTRA:         -14.873
REMARK INTER:                 -14.034
REMARK INTRA:                  -0.839
REMARK UNBOUND:                -0.839
REMARK  10 active torsions:
REMARK  status: ('A' for Active; 'I' for Inactive)
REMARK    1  A    between atoms: C5_5  and  O2_8 
REMARK    2  A    between atoms: C6_6  and  O1_7 
REMARK    3  A    between atoms: C10_14  and  O11_30 
REMARK    4  A    between atoms: C11_15  and  C14_19 
REMARK    5  A    between atoms: C12_16  and  O5_18 
REMARK    6  A    between atoms: C15_20  and  O10_29 
REMARK    7  A    between atoms: C16_21  and  O9_28 
REMARK    8  A    between atoms: C17_22  and  O8_27 
REMARK    9  A    between atoms: C18_23  and  C19_25 
REMARK   10  A    between atoms: C19_25  and  O7_26 
ROOT
HETATM    1  C1  MAN     1       3.559  65.834  28.722  1.00  0.00     0.057 A 
HETATM    2  C2  MAN     1       4.827  65.437  29.157  1.00  0.00     0.052 A 
HETATM    3  C3  MAN     1       5.931  66.280  29.016  1.00  0.00     0.093 A 
HETATM    4  C4  MAN     1       5.775  67.533  28.420  1.00  0.00     0.077 A 
HETATM    5  C5  MAN     1       4.518  67.920  27.975  1.00  0.00     0.101 A 
HETATM    6  C6  MAN     1       3.414  67.087  28.148  1.00  0.00     0.099 A 
HETATM    7  O3  MAN     1       7.199  65.951  29.427  1.00  0.00    -0.309 OA
HETATM    8  C7  MAN     1       7.396  64.724  30.015  1.00  0.00     0.095 A 
HETATM    9  C8  MAN     1       6.391  63.783  30.220  1.00  0.00     0.083 A 
HETATM   10  C9  MAN     1       5.029  64.124  29.782  1.00  0.00     0.200 A 
HETATM   11  O4  MAN     1       4.109  63.329  29.937  1.00  0.00    -0.286 OA
HETATM   12  C10 MAN     1       6.682  62.554  30.836  1.00  0.00     0.094 A 
HETATM   13  C11 MAN     1       7.996  62.239  31.225  1.00  0.00     0.041 A 
HETATM   14  C12 MAN     1       8.984  63.223  31.034  1.00  0.00     0.080 A 
HETATM   15  C13 MAN     1       8.698  64.448  30.431  1.00  0.00     0.075 A 
ENDROOT
BRANCH  13  16
HETATM   16  C14 MAN     1       8.389  60.917  31.868  1.00  0.00     0.192 C 
HETATM   17  C15 MAN     1       8.662  59.815  30.805  1.00  0.00     0.183 C 
HETATM   18  C16 MAN     1      10.153  59.467  30.710  1.00  0.00     0.181 C 
HETATM   19  C17 MAN     1      10.739  59.121  32.095  1.00  0.00     0.180 C 
HETATM   20  C18 MAN     1       9.981  59.826  33.238  1.00  0.00     0.177 C 
HETATM   21  O6  MAN     1       9.477  61.085  32.796  1.00  0.00    -0.368 OA
BRANCH  17  22
HETATM   22  O10 MAN     1       7.954  58.610  31.168  1.00  0.00    -0.390 OA
HETATM   23  H17 MAN     1       8.345  57.893  30.630  1.00  0.00     0.210 HD
ENDBRANCH  17  22
BRANCH  18  24
HETATM   24  O9  MAN     1      10.888  60.529  30.097  1.00  0.00    -0.390 OA
HETATM   25  H16 MAN     1      11.308  61.060  30.809  1.00  0.00     0.210 HD
ENDBRANCH  18  24
BRANCH  19  26
HETATM   26  O8  MAN     1      10.702  57.706  32.338  1.00  0.00    -0.390 OA
HETATM   27  H15 MAN     1      11.557  57.474  32.757  1.00  0.00     0.210 HD
ENDBRANCH  19  26
BRANCH  20  28
HETATM   28  C19 MAN     1      10.899  60.026  34.452  1.00  0.00     0.198 C 
BRANCH  28  29
HETATM   29  O7  MAN     1      11.956  59.071  34.485  1.00  0.00    -0.398 OA
HETATM   30  H14 MAN     1      12.705  59.471  34.971  1.00  0.00     0.209 HD
ENDBRANCH  28  29
ENDBRANCH  20  28
ENDBRANCH  13  16
BRANCH  12  31
HETATM   31  O11 MAN     1       5.684  61.647  31.102  1.00  0.00    -0.359 OA
HETATM   32  H18 MAN     1       6.088  60.748  31.162  1.00  0.00     0.217 HD
ENDBRANCH  12  31
BRANCH  14  33
HETATM   33  O5  MAN     1      10.255  62.972  31.478  1.00  0.00    -0.360 OA
HETATM   34  H6  MAN     1      10.420  63.490  32.286  1.00  0.00     0.217 HD
ENDBRANCH  14  33
BRANCH   6  35
HETATM   35  O1  MAN     1       2.169  67.503  27.777  1.00  0.00    -0.358 OA
HETATM   36  H3  MAN     1       1.557  66.776  27.995  1.00  0.00     0.217 HD
ENDBRANCH   6  35
BRANCH   5  37
HETATM   37  O2  MAN     1       4.388  69.120  27.338  1.00  0.00    -0.358 OA
HETATM   38  H4  MAN     1       3.431  69.268  27.216  1.00  0.00     0.217 HD
ENDBRANCH   5  37
TORSDOF 10
ENDMDL
