MODEL 1
REMARK VINA RESULT:   -10.487      0.000      0.000
REMARK INTER + INTRA:         -18.301
REMARK INTER:                 -16.618
REMARK INTRA:                  -1.683
REMARK UNBOUND:                -1.683
REMARK  14 active torsions:
REMARK  status: ('A' for Active; 'I' for Inactive)
REMARK    1  A    between atoms: C3_3  and  O14_41 
REMARK    2  A    between atoms: C4_4  and  O13_40 
REMARK    3  A    between atoms: C5_5  and  O12_39 
REMARK    4  A    between atoms: C6_6  and  O2_8 
REMARK    5  A    between atoms: O2_8  and  C7_9 
REMARK    6  A    between atoms: C8_10  and  O11_38 
REMARK    7  A    between atoms: C9_11  and  O10_37 
REMARK    8  A    between atoms: C10_12  and  C27_35 
REMARK    9  A    between atoms: C11_14  and  O4_15 
REMARK   10  A    between atoms: O4_15  and  C12_16 
REMARK   11  A    between atoms: C14_18  and  O8_34 
REMARK   12  A    between atoms: C18_23  and  C21_27 
REMARK   13  A    between atoms: C24_30  and  O7_33 
REMARK   14  A    between atoms: C27_35  and  O9_36 
ROOT
HETATM    1  C7  NAR     1      10.584  62.917  33.962  1.00  0.00     0.211 C 
HETATM    2  C8  NAR     1      11.492  63.599  35.002  1.00  0.00     0.183 C 
HETATM    3  C9  NAR     1      10.682  64.276  36.127  1.00  0.00     0.180 C 
HETATM    4  C10 NAR     1       9.266  64.640  35.644  1.00  0.00     0.179 C 
HETATM    5  O3  NAR     1       9.313  65.047  34.279  1.00  0.00    -0.348 OA
HETATM    6  C11 NAR     1       9.553  63.939  33.392  1.00  0.00     0.298 C 
ENDROOT
BRANCH   6   7
HETATM    7  O4  NAR     1      10.103  64.441  32.163  1.00  0.00    -0.318 OA
BRANCH   7   8
HETATM    8  C12 NAR     1       9.430  64.157  31.008  1.00  0.00     0.077 A 
HETATM    9  C13 NAR     1       9.698  63.089  30.151  1.00  0.00     0.074 A 
HETATM   10  C14 NAR     1       8.919  62.902  29.009  1.00  0.00     0.085 A 
HETATM   11  C15 NAR     1       7.871  63.778  28.716  1.00  0.00     0.076 A 
HETATM   12  C16 NAR     1       6.996  63.579  27.547  1.00  0.00     0.167 C 
HETATM   13  C19 NAR     1       7.607  64.851  29.567  1.00  0.00     0.089 A 
HETATM   14  O5  NAR     1       7.210  62.647  26.774  1.00  0.00    -0.292 OA
HETATM   15  C17 NAR     1       5.826  64.509  27.406  1.00  0.00     0.121 C 
HETATM   16  C18 NAR     1       6.230  65.865  27.969  1.00  0.00     0.169 C 
HETATM   17  O6  NAR     1       6.602  65.756  29.354  1.00  0.00    -0.340 OA
HETATM   18  C20 NAR     1       8.371  65.025  30.720  1.00  0.00     0.074 A 
BRANCH  10  19
HETATM   19  O8  NAR     1       9.231  61.826  28.222  1.00  0.00    -0.360 OA
HETATM   20  H24 NAR     1       9.297  62.135  27.289  1.00  0.00     0.217 HD
ENDBRANCH  10  19
BRANCH  16  21
HETATM   21  C21 NAR     1       5.085  66.854  27.842  1.00  0.00    -0.028 A 
HETATM   22  C22 NAR     1       3.786  66.431  27.511  1.00  0.00     0.012 A 
HETATM   23  C23 NAR     1       2.747  67.355  27.374  1.00  0.00     0.037 A 
HETATM   24  C24 NAR     1       3.005  68.708  27.565  1.00  0.00     0.065 A 
HETATM   25  C25 NAR     1       4.282  69.149  27.887  1.00  0.00     0.037 A 
HETATM   26  C26 NAR     1       5.321  68.226  28.024  1.00  0.00     0.012 A 
BRANCH  24  27
HETATM   27  O7  NAR     1       2.023  69.644  27.441  1.00  0.00    -0.361 OA
HETATM   28  H23 NAR     1       1.162  69.201  27.524  1.00  0.00     0.217 HD
ENDBRANCH  24  27
ENDBRANCH  16  21
ENDBRANCH   7   8
ENDBRANCH   6   7
BRANCH   1  29
HETATM   29  O2  NAR     1       9.912  61.820  34.610  1.00  0.00    -0.346 OA
BRANCH  29  30
HETATM   30  C6  NAR     1      10.133  60.571  33.948  1.00  0.00     0.292 C 
HETATM   31  C5  NAR     1       9.083  60.455  32.822  1.00  0.00     0.204 C 
HETATM   32  C4  NAR     1       9.512  59.427  31.766  1.00  0.00     0.183 C 
HETATM   33  C3  NAR     1      10.523  58.434  32.343  1.00  0.00     0.178 C 
HETATM   34  C2  NAR     1      11.755  59.199  32.867  1.00  0.00     0.152 C 
HETATM   35  C1  NAR     1      12.518  58.395  33.915  1.00  0.00     0.042 C 
HETATM   36  O1  NAR     1      11.442  60.495  33.406  1.00  0.00    -0.351 OA
BRANCH  31  37
HETATM   37  O12 NAR     1       7.804  60.076  33.371  1.00  0.00    -0.388 OA
HETATM   38  H30 NAR     1       7.409  60.903  33.715  1.00  0.00     0.210 HD
ENDBRANCH  31  37
BRANCH  32  39
HETATM   39  O13 NAR     1       8.382  58.701  31.255  1.00  0.00    -0.390 OA
HETATM   40  H31 NAR     1       8.355  58.913  30.295  1.00  0.00     0.210 HD
ENDBRANCH  32  39
BRANCH  33  41
HETATM   41  O14 NAR     1      10.908  57.488  31.342  1.00  0.00    -0.390 OA
HETATM   42  H32 NAR     1      10.308  56.723  31.470  1.00  0.00     0.210 HD
ENDBRANCH  33  41
ENDBRANCH  29  30
ENDBRANCH   1  29
BRANCH   2  43
HETATM   43  O11 NAR     1      12.343  64.560  34.355  1.00  0.00    -0.390 OA
HETATM   44  H29 NAR     1      11.775  65.231  33.930  1.00  0.00     0.210 HD
ENDBRANCH   2  43
BRANCH   4  45
HETATM   45  C27 NAR     1       8.677  65.773  36.493  1.00  0.00     0.198 C 
BRANCH  45  46
HETATM   46  O9  NAR     1       7.364  66.101  36.044  1.00  0.00    -0.398 OA
HETATM   47  H27 NAR     1       6.749  65.547  36.562  1.00  0.00     0.209 HD
ENDBRANCH  45  46
ENDBRANCH   4  45
BRANCH   3  48
HETATM   48  O10 NAR     1      10.596  63.426  37.276  1.00  0.00    -0.390 OA
HETATM   49  H28 NAR     1       9.751  63.658  37.716  1.00  0.00     0.210 HD
ENDBRANCH   3  48
TORSDOF 14
ENDMDL
