MODEL 1
REMARK VINA RESULT:    -7.551      0.000      0.000
REMARK INTER + INTRA:          -9.427
REMARK INTER:                  -9.096
REMARK INTRA:                  -0.330
REMARK UNBOUND:                -0.330
REMARK  5 active torsions:
REMARK  status: ('A' for Active; 'I' for Inactive)
REMARK    1  A    between atoms: C3_3  and  O3_17 
REMARK    2  A    between atoms: C6_6  and  C7_7 
REMARK    3  A    between atoms: C8_8  and  C9_9 
REMARK    4  A    between atoms: C11_11  and  O2_16 
REMARK    5  A    between atoms: C13_13  and  O1_15 
ROOT
HETATM    1  C9  RES     1       9.191  60.474  31.632  1.00  0.00    -0.031 A 
HETATM    2  C10 RES     1       8.650  59.182  31.670  1.00  0.00     0.048 A 
HETATM    3  C11 RES     1       9.474  58.084  31.908  1.00  0.00     0.069 A 
HETATM    4  C12 RES     1      10.837  58.248  32.121  1.00  0.00     0.073 A 
HETATM    5  C13 RES     1      11.370  59.532  32.101  1.00  0.00     0.069 A 
HETATM    6  C14 RES     1      10.563  60.644  31.864  1.00  0.00     0.048 A 
ENDROOT
BRANCH   1   7
HETATM    7  C8  RES     1       8.288  61.613  31.409  1.00  0.00     0.012 C 
HETATM    8  C7  RES     1       7.419  61.686  30.387  1.00  0.00     0.012 C 
BRANCH   8   9
HETATM    9  C6  RES     1       6.513  62.822  30.164  1.00  0.00    -0.036 A 
HETATM   10  C1  RES     1       6.959  64.039  29.625  1.00  0.00     0.014 A 
HETATM   11  C2  RES     1       6.075  65.108  29.455  1.00  0.00     0.037 A 
HETATM   12  C3  RES     1       4.745  64.966  29.834  1.00  0.00     0.065 A 
HETATM   13  C4  RES     1       4.289  63.774  30.384  1.00  0.00     0.037 A 
HETATM   14  C5  RES     1       5.172  62.706  30.554  1.00  0.00     0.014 A 
BRANCH  12  15
HETATM   15  O3  RES     1       3.850  65.982  29.687  1.00  0.00    -0.361 OA
HETATM   16  H12 RES     1       3.364  66.090  30.522  1.00  0.00     0.217 HD
ENDBRANCH  12  15
ENDBRANCH   8   9
ENDBRANCH   1   7
BRANCH   3  17
HETATM   17  O2  RES     1       8.896  56.849  31.924  1.00  0.00    -0.361 OA
HETATM   18  H11 RES     1       8.030  56.909  31.486  1.00  0.00     0.217 HD
ENDBRANCH   3  17
BRANCH   5  19
HETATM   19  O1  RES     1      12.710  59.662  32.328  1.00  0.00    -0.361 OA
HETATM   20  H10 RES     1      13.092  58.778  32.454  1.00  0.00     0.217 HD
ENDBRANCH   5  19
TORSDOF 5
ENDMDL
