MODEL 1
REMARK VINA RESULT:    -8.904      0.000      0.000
REMARK INTER + INTRA:         -10.830
REMARK INTER:                 -10.726
REMARK INTRA:                  -0.104
REMARK UNBOUND:                -0.104
REMARK  5 active torsions:
REMARK  status: ('A' for Active; 'I' for Inactive)
REMARK    1  A    between atoms: O1_2  and  C2_3 
REMARK    2  A    between atoms: C4_5  and  O6_22 
REMARK    3  A    between atoms: C8_10  and  C11_15 
REMARK    4  A    between atoms: C9_11  and  O4_14 
REMARK    5  A    between atoms: C14_18  and  O5_21 
ROOT
HETATM    1  C2  RHA     1      10.895  62.668  34.225  1.00  0.00     0.073 A 
HETATM    2  C3  RHA     1      10.899  61.284  34.409  1.00  0.00     0.074 A 
HETATM    3  C4  RHA     1      10.238  60.459  33.497  1.00  0.00     0.085 A 
HETATM    4  C5  RHA     1       9.574  61.011  32.400  1.00  0.00     0.084 A 
HETATM    5  C6  RHA     1       9.569  62.387  32.212  1.00  0.00     0.096 A 
HETATM    6  C7  RHA     1      10.228  63.214  33.121  1.00  0.00     0.075 A 
HETATM    7  O2  RHA     1       8.940  62.995  31.156  1.00  0.00    -0.306 OA
HETATM    8  C8  RHA     1       8.260  62.207  30.234  1.00  0.00     0.123 A 
HETATM    9  C9  RHA     1       8.195  60.864  30.298  1.00  0.00     0.152 A 
HETATM   10  C10 RHA     1       8.872  60.177  31.422  1.00  0.00     0.223 A 
HETATM   11  O3  RHA     1       8.840  58.952  31.517  1.00  0.00    -0.284 OA
ENDROOT
BRANCH   8  12
HETATM   12  C11 RHA     1       7.634  62.999  29.154  1.00  0.00     0.001 A 
HETATM   13  C12 RHA     1       6.759  64.051  29.476  1.00  0.00     0.017 A 
HETATM   14  C13 RHA     1       6.133  64.798  28.473  1.00  0.00     0.037 A 
HETATM   15  C14 RHA     1       6.377  64.489  27.140  1.00  0.00     0.065 A 
HETATM   16  C15 RHA     1       7.229  63.449  26.796  1.00  0.00     0.037 A 
HETATM   17  C16 RHA     1       7.853  62.704  27.800  1.00  0.00     0.017 A 
BRANCH  15  18
HETATM   18  O5  RHA     1       5.788  65.190  26.130  1.00  0.00    -0.361 OA
HETATM   19  H11 RHA     1       5.339  64.564  25.538  1.00  0.00     0.217 HD
ENDBRANCH  15  18
ENDBRANCH   8  12
BRANCH   9  20
HETATM   20  O4  RHA     1       7.548  60.068  29.372  1.00  0.00    -0.355 OA
HETATM   21  H6  RHA     1       8.259  59.674  28.824  1.00  0.00     0.218 HD
ENDBRANCH   9  20
BRANCH   3  22
HETATM   22  O6  RHA     1      10.284  59.112  33.741  1.00  0.00    -0.360 OA
HETATM   23  H12 RHA     1      11.199  58.795  33.567  1.00  0.00     0.217 HD
ENDBRANCH   3  22
BRANCH   1  24
HETATM   24  O1  RHA     1      11.499  63.588  35.036  1.00  0.00    -0.356 OA
HETATM   25  C1  RHA     1      11.289  63.447  36.437  1.00  0.00     0.210 C 
ENDBRANCH   1  24
TORSDOF 5
ENDMDL
