MODEL 1
REMARK VINA RESULT:    -9.566      0.000      0.000
REMARK INTER + INTRA:         -16.811
REMARK INTER:                 -15.717
REMARK INTRA:                  -1.094
REMARK UNBOUND:                -1.094
REMARK  16 active torsions:
REMARK  status: ('A' for Active; 'I' for Inactive)
REMARK    1  A    between atoms: C3_3  and  O16_43 
REMARK    2  A    between atoms: C4_4  and  O15_42 
REMARK    3  A    between atoms: C5_5  and  O14_41 
REMARK    4  A    between atoms: C6_6  and  O2_8 
REMARK    5  A    between atoms: O2_8  and  C7_9 
REMARK    6  A    between atoms: C7_9  and  C8_10 
REMARK    7  A    between atoms: C9_11  and  O13_40 
REMARK    8  A    between atoms: C10_12  and  O12_39 
REMARK    9  A    between atoms: C11_13  and  O11_38 
REMARK   10  A    between atoms: C12_14  and  O4_16 
REMARK   11  A    between atoms: O4_16  and  C13_17 
REMARK   12  A    between atoms: C14_18  and  C22_30 
REMARK   13  A    between atoms: C17_22  and  O8_29 
REMARK   14  A    between atoms: C19_24  and  O7_28 
REMARK   15  A    between atoms: C24_32  and  O10_37 
REMARK   16  A    between atoms: C25_33  and  O9_36 
ROOT
HETATM    1  C8  RUT     1       5.371  66.823  27.669  1.00  0.00     0.180 C 
HETATM    2  C9  RUT     1       4.067  67.438  28.203  1.00  0.00     0.180 C 
HETATM    3  C10 RUT     1       4.106  68.957  28.004  1.00  0.00     0.183 C 
HETATM    4  C11 RUT     1       4.724  69.376  26.664  1.00  0.00     0.205 C 
HETATM    5  C12 RUT     1       4.900  68.180  25.705  1.00  0.00     0.298 C 
HETATM    6  O3  RUT     1       5.598  67.065  26.276  1.00  0.00    -0.348 OA
ENDROOT
BRANCH   5   7
HETATM    7  O4  RUT     1       3.614  67.751  25.237  1.00  0.00    -0.311 OA
BRANCH   7   8
HETATM    8  C13 RUT     1       3.234  68.380  24.065  1.00  0.00     0.157 A 
HETATM    9  C14 RUT     1       2.032  68.970  23.915  1.00  0.00     0.124 A 
HETATM   10  O5  RUT     1       1.603  69.610  22.766  1.00  0.00    -0.306 OA
HETATM   11  C15 RUT     1       2.474  69.727  21.715  1.00  0.00     0.096 A 
HETATM   12  C16 RUT     1       2.019  70.410  20.588  1.00  0.00     0.075 A 
HETATM   13  C20 RUT     1       3.762  69.197  21.737  1.00  0.00     0.084 A 
HETATM   14  C17 RUT     1       2.861  70.559  19.489  1.00  0.00     0.071 A 
HETATM   15  C18 RUT     1       4.151  70.036  19.497  1.00  0.00     0.074 A 
HETATM   16  C19 RUT     1       4.599  69.354  20.627  1.00  0.00     0.085 A 
HETATM   17  C21 RUT     1       4.199  68.476  22.938  1.00  0.00     0.223 A 
HETATM   18  O6  RUT     1       5.318  67.968  22.983  1.00  0.00    -0.284 OA
BRANCH   9  19
HETATM   19  C22 RUT     1       1.014  68.956  24.979  1.00  0.00     0.004 A 
HETATM   20  C23 RUT     1       0.620  70.162  25.580  1.00  0.00     0.053 A 
HETATM   21  C24 RUT     1      -0.326  70.142  26.600  1.00  0.00     0.099 A 
HETATM   22  C25 RUT     1      -0.873  68.936  27.031  1.00  0.00     0.098 A 
HETATM   23  C26 RUT     1      -0.493  67.736  26.449  1.00  0.00     0.040 A 
HETATM   24  C27 RUT     1       0.451  67.747  25.420  1.00  0.00     0.017 A 
BRANCH  21  25
HETATM   25  O10 RUT     1      -0.752  71.288  27.214  1.00  0.00    -0.358 OA
HETATM   26  H24 RUT     1      -0.058  71.583  27.828  1.00  0.00     0.217 HD
ENDBRANCH  21  25
BRANCH  22  27
HETATM   27  O9  RUT     1      -1.792  68.924  28.039  1.00  0.00    -0.358 OA
HETATM   28  H23 RUT     1      -1.349  68.453  28.772  1.00  0.00     0.217 HD
ENDBRANCH  22  27
ENDBRANCH   9  19
BRANCH  14  29
HETATM   29  O8  RUT     1       2.376  71.234  18.409  1.00  0.00    -0.361 OA
HETATM   30  H19 RUT     1       1.462  70.948  18.242  1.00  0.00     0.217 HD
ENDBRANCH  14  29
BRANCH  16  31
HETATM   31  O7  RUT     1       5.876  68.861  20.577  1.00  0.00    -0.360 OA
HETATM   32  H18 RUT     1       6.500  69.619  20.532  1.00  0.00     0.217 HD
ENDBRANCH  16  31
ENDBRANCH   7   8
ENDBRANCH   5   7
BRANCH   4  33
HETATM   33  O11 RUT     1       6.008  69.976  26.926  1.00  0.00    -0.388 OA
HETATM   34  H25 RUT     1       6.665  69.257  26.909  1.00  0.00     0.210 HD
ENDBRANCH   4  33
BRANCH   3  35
HETATM   35  O12 RUT     1       2.766  69.466  28.128  1.00  0.00    -0.390 OA
HETATM   36  H26 RUT     1       2.333  69.245  27.280  1.00  0.00     0.210 HD
ENDBRANCH   3  35
BRANCH   1  37
HETATM   37  C7  RUT     1       5.414  65.302  27.889  1.00  0.00     0.205 C 
BRANCH  37  38
HETATM   38  O2  RUT     1       6.636  64.931  28.540  1.00  0.00    -0.356 OA
BRANCH  38  39
HETATM   39  C6  RUT     1       6.382  64.176  29.732  1.00  0.00     0.291 C 
HETATM   40  C5  RUT     1       6.109  62.703  29.362  1.00  0.00     0.204 C 
HETATM   41  C4  RUT     1       7.398  62.012  28.923  1.00  0.00     0.183 C 
HETATM   42  C3  RUT     1       8.507  62.211  29.960  1.00  0.00     0.178 C 
HETATM   43  C2  RUT     1       8.690  63.714  30.219  1.00  0.00     0.152 C 
HETATM   44  C1  RUT     1       9.736  63.974  31.298  1.00  0.00     0.042 C 
HETATM   45  O1  RUT     1       7.466  64.313  30.655  1.00  0.00    -0.351 OA
BRANCH  40  46
HETATM   46  O14 RUT     1       5.555  61.985  30.478  1.00  0.00    -0.388 OA
HETATM   47  H28 RUT     1       6.330  61.753  31.031  1.00  0.00     0.210 HD
ENDBRANCH  40  46
BRANCH  41  48
HETATM   48  O15 RUT     1       7.145  60.604  28.766  1.00  0.00    -0.390 OA
HETATM   49  H29 RUT     1       6.630  60.356  29.561  1.00  0.00     0.210 HD
ENDBRANCH  41  48
BRANCH  42  50
HETATM   50  O16 RUT     1       9.694  61.592  29.449  1.00  0.00    -0.390 OA
HETATM   51  H30 RUT     1       9.439  61.086  28.657  1.00  0.00     0.210 HD
ENDBRANCH  42  50
ENDBRANCH  38  39
ENDBRANCH  37  38
ENDBRANCH   1  37
BRANCH   2  52
HETATM   52  O13 RUT     1       3.845  67.200  29.602  1.00  0.00    -0.390 OA
HETATM   53  H27 RUT     1       2.900  67.385  29.776  1.00  0.00     0.210 HD
ENDBRANCH   2  52
TORSDOF 16
ENDMDL
