MODEL 1
REMARK VINA RESULT:   -10.607      0.000      0.000
REMARK INTER + INTRA:         -15.313
REMARK INTER:                 -14.637
REMARK INTRA:                  -0.676
REMARK UNBOUND:                -0.676
REMARK  9 active torsions:
REMARK  status: ('A' for Active; 'I' for Inactive)
REMARK    1  A    between atoms: O1_2  and  C2_3 
REMARK    2  A    between atoms: C3_4  and  O10_35 
REMARK    3  A    between atoms: C6_7  and  C8_9 
REMARK    4  A    between atoms: C9_10  and  C25_33 
REMARK    5  A    between atoms: C13_16  and  C16_19 
REMARK    6  A    between atoms: C17_20  and  O8_32 
REMARK    7  A    between atoms: C20_24  and  O7_31 
REMARK    8  A    between atoms: C22_26  and  O6_30 
REMARK    9  A    between atoms: C25_33  and  O9_34 
ROOT
HETATM    1  C8  SIL     1       9.245  62.962  31.889  1.00  0.00     0.193 C 
HETATM    2  C9  SIL     1      10.201  62.682  30.715  1.00  0.00     0.186 C 
HETATM    3  O2  SIL     1       9.444  62.452  29.504  1.00  0.00    -0.338 OA
HETATM    4  C10 SIL     1       8.453  63.382  29.338  1.00  0.00     0.102 A 
HETATM    5  C11 SIL     1       8.002  64.212  30.363  1.00  0.00     0.103 A 
HETATM    6  O3  SIL     1       8.494  64.165  31.640  1.00  0.00    -0.336 OA
HETATM    7  C12 SIL     1       7.008  65.159  30.113  1.00  0.00     0.049 A 
HETATM    8  C13 SIL     1       6.425  65.263  28.839  1.00  0.00    -0.023 A 
HETATM    9  C14 SIL     1       6.877  64.407  27.821  1.00  0.00     0.013 A 
HETATM   10  C15 SIL     1       7.882  63.468  28.071  1.00  0.00     0.040 A 
ENDROOT
BRANCH   8  11
HETATM   11  C16 SIL     1       5.348  66.296  28.538  1.00  0.00     0.198 C 
HETATM   12  C17 SIL     1       4.171  65.668  27.783  1.00  0.00     0.227 C 
HETATM   13  C18 SIL     1       3.182  66.762  27.430  1.00  0.00     0.196 C 
HETATM   14  O4  SIL     1       1.974  66.553  27.316  1.00  0.00    -0.289 OA
HETATM   15  C19 SIL     1       3.723  68.107  27.182  1.00  0.00     0.079 A 
HETATM   16  C20 SIL     1       2.903  69.156  26.747  1.00  0.00     0.085 A 
HETATM   17  C24 SIL     1       5.090  68.320  27.360  1.00  0.00     0.089 A 
HETATM   18  C21 SIL     1       3.447  70.409  26.476  1.00  0.00     0.074 A 
HETATM   19  C22 SIL     1       4.815  70.603  26.634  1.00  0.00     0.071 A 
HETATM   20  C23 SIL     1       5.640  69.568  27.070  1.00  0.00     0.074 A 
HETATM   21  O5  SIL     1       5.961  67.355  27.781  1.00  0.00    -0.337 OA
BRANCH  12  22
HETATM   22  O8  SIL     1       3.487  64.697  28.581  1.00  0.00    -0.385 OA
HETATM   23  H18 SIL     1       3.329  65.119  29.450  1.00  0.00     0.210 HD
ENDBRANCH  12  22
BRANCH  16  24
HETATM   24  O7  SIL     1       1.553  69.021  26.559  1.00  0.00    -0.360 OA
HETATM   25  H17 SIL     1       1.244  68.240  27.071  1.00  0.00     0.217 HD
ENDBRANCH  16  24
BRANCH  19  26
HETATM   26  O6  SIL     1       5.396  71.808  26.372  1.00  0.00    -0.361 OA
HETATM   27  H16 SIL     1       5.929  72.075  27.141  1.00  0.00     0.217 HD
ENDBRANCH  19  26
ENDBRANCH   8  11
BRANCH   1  28
HETATM   28  C6  SIL     1       9.953  63.153  33.218  1.00  0.00    -0.024 A 
HETATM   29  C5  SIL     1      10.495  64.398  33.574  1.00  0.00     0.013 A 
HETATM   30  C4  SIL     1      11.161  64.559  34.788  1.00  0.00     0.040 A 
HETATM   31  C3  SIL     1      11.284  63.476  35.657  1.00  0.00     0.099 A 
HETATM   32  C2  SIL     1      10.744  62.224  35.334  1.00  0.00     0.101 A 
HETATM   33  C7  SIL     1      10.080  62.073  34.111  1.00  0.00     0.049 A 
BRANCH  31  34
HETATM   34  O10 SIL     1      11.939  63.634  36.850  1.00  0.00    -0.358 OA
HETATM   35  H22 SIL     1      11.322  63.457  37.576  1.00  0.00     0.217 HD
ENDBRANCH  31  34
BRANCH  32  36
HETATM   36  O1  SIL     1      10.922  61.231  36.261  1.00  0.00    -0.353 OA
HETATM   37  C1  SIL     1      10.174  60.036  36.097  1.00  0.00     0.210 C 
ENDBRANCH  32  36
ENDBRANCH   1  28
BRANCH   2  38
HETATM   38  C25 SIL     1      11.046  61.422  30.932  1.00  0.00     0.199 C 
BRANCH  38  39
HETATM   39  O9  SIL     1      12.398  61.660  30.526  1.00  0.00    -0.398 OA
HETATM   40  H21 SIL     1      12.824  60.784  30.474  1.00  0.00     0.209 HD
ENDBRANCH  38  39
ENDBRANCH   2  38
TORSDOF 9
ENDMDL
