MODEL 1
REMARK VINA RESULT:    -9.223      0.000      0.000
REMARK INTER + INTRA:         -12.772
REMARK INTER:                 -12.727
REMARK INTRA:                  -0.045
REMARK UNBOUND:                -0.045
REMARK  10 active torsions:
REMARK  status: ('A' for Active; 'I' for Inactive)
REMARK    1  A    between atoms: C3_3  and  O10_31 
REMARK    2  A    between atoms: C6_6  and  C7_7 
REMARK    3  A    between atoms: C12_14  and  C16_20 
REMARK    4  A    between atoms: C13_15  and  O4_19 
REMARK    5  A    between atoms: C15_17  and  O3_18 
REMARK    6  A    between atoms: C17_21  and  O9_30 
REMARK    7  A    between atoms: C18_22  and  O8_29 
REMARK    8  A    between atoms: C19_23  and  O7_28 
REMARK    9  A    between atoms: C20_24  and  C21_26 
REMARK   10  A    between atoms: C21_26  and  O6_27 
ROOT
HETATM    1  C7  VIT     1       7.089  62.630  30.167  1.00  0.00     0.090 A 
HETATM    2  C8  VIT     1       6.910  61.487  29.492  1.00  0.00     0.094 A 
HETATM    3  C9  VIT     1       7.828  60.370  29.740  1.00  0.00     0.190 A 
HETATM    4  O1  VIT     1       7.713  59.304  29.143  1.00  0.00    -0.287 OA
HETATM    5  C10 VIT     1       8.896  60.581  30.725  1.00  0.00     0.082 A 
HETATM    6  C11 VIT     1       8.971  61.812  31.382  1.00  0.00     0.104 A 
HETATM    7  O2  VIT     1       8.079  62.826  31.115  1.00  0.00    -0.308 OA
HETATM    8  C12 VIT     1       9.977  62.055  32.340  1.00  0.00     0.041 A 
HETATM    9  C13 VIT     1      10.905  61.027  32.590  1.00  0.00     0.080 A 
HETATM   10  C14 VIT     1      10.835  59.798  31.932  1.00  0.00     0.074 A 
HETATM   11  C15 VIT     1       9.827  59.576  31.003  1.00  0.00     0.085 A 
ENDROOT
BRANCH   8  12
HETATM   12  C16 VIT     1      10.073  63.377  33.087  1.00  0.00     0.192 C 
HETATM   13  C17 VIT     1       8.847  64.301  32.843  1.00  0.00     0.183 C 
HETATM   14  C18 VIT     1       8.570  65.210  34.065  1.00  0.00     0.181 C 
HETATM   15  C19 VIT     1       9.888  65.557  34.768  1.00  0.00     0.180 C 
HETATM   16  C20 VIT     1      10.624  64.271  35.229  1.00  0.00     0.177 C 
HETATM   17  O5  VIT     1      10.238  63.101  34.485  1.00  0.00    -0.368 OA
BRANCH  13  18
HETATM   18  O9  VIT     1       9.082  65.126  31.687  1.00  0.00    -0.390 OA
HETATM   19  H19 VIT     1       9.829  64.710  31.206  1.00  0.00     0.210 HD
ENDBRANCH  13  18
BRANCH  14  20
HETATM   20  O8  VIT     1       7.671  64.606  34.997  1.00  0.00    -0.390 OA
HETATM   21  H18 VIT     1       8.206  64.157  35.676  1.00  0.00     0.210 HD
ENDBRANCH  14  20
BRANCH  15  22
HETATM   22  O7  VIT     1      10.710  66.277  33.825  1.00  0.00    -0.390 OA
HETATM   23  H17 VIT     1      11.502  66.561  34.318  1.00  0.00     0.210 HD
ENDBRANCH  15  22
BRANCH  16  24
HETATM   24  C21 VIT     1      10.375  63.976  36.712  1.00  0.00     0.198 C 
BRANCH  24  25
HETATM   25  O6  VIT     1      10.812  62.659  37.039  1.00  0.00    -0.398 OA
HETATM   26  H16 VIT     1      11.747  62.604  36.771  1.00  0.00     0.209 HD
ENDBRANCH  24  25
ENDBRANCH  16  24
ENDBRANCH   8  12
BRANCH   9  27
HETATM   27  O4  VIT     1      11.902  61.234  33.503  1.00  0.00    -0.360 OA
HETATM   28  H8  VIT     1      12.090  62.187  33.560  1.00  0.00     0.217 HD
ENDBRANCH   9  27
BRANCH  11  29
HETATM   29  O3  VIT     1       9.811  58.350  30.394  1.00  0.00    -0.360 OA
HETATM   30  H7  VIT     1       9.134  58.371  29.680  1.00  0.00     0.217 HD
ENDBRANCH  11  29
BRANCH   1  31
HETATM   31  C6  VIT     1       6.209  63.798  29.966  1.00  0.00    -0.002 A 
HETATM   32  C1  VIT     1       4.855  63.779  30.341  1.00  0.00     0.017 A 
HETATM   33  C2  VIT     1       4.033  64.890  30.125  1.00  0.00     0.037 A 
HETATM   34  C3  VIT     1       4.563  66.026  29.522  1.00  0.00     0.065 A 
HETATM   35  C4  VIT     1       5.894  66.065  29.132  1.00  0.00     0.037 A 
HETATM   36  C5  VIT     1       6.714  64.955  29.352  1.00  0.00     0.017 A 
BRANCH  34  37
HETATM   37  O10 VIT     1       3.798  67.130  29.290  1.00  0.00    -0.361 OA
HETATM   38  H20 VIT     1       4.359  67.919  29.359  1.00  0.00     0.217 HD
ENDBRANCH  34  37
ENDBRANCH   1  31
TORSDOF 10
ENDMDL
