REMARK  0 active torsions:
REMARK  status: ('A' for Active; 'I' for Inactive)
ROOT
HETATM    1  O   PYC A   1      10.737  10.896 -10.787  1.00  0.00    -0.285 OA
HETATM    2  N   PYC A   1       8.915   7.830  -7.447  1.00  0.00    -0.323 N 
HETATM    3  N   PYC A   1      10.954   9.677  -8.303  1.00  0.00    -0.239 NA
HETATM    4  C   PYC A   1       8.818   8.454  -8.700  1.00  0.00     0.081 A 
HETATM    5  C   PYC A   1      10.033   8.122  -6.608  1.00  0.00     0.078 A 
HETATM    6  C   PYC A   1       9.937   9.409  -9.065  1.00  0.00     0.136 A 
HETATM    7  C   PYC A   1      11.020   9.035  -7.057  1.00  0.00     0.097 A 
HETATM    8  C   PYC A   1       7.936   6.881  -6.921  1.00  0.00     0.131 C 
HETATM    9  C   PYC A   1       7.844   8.300  -9.615  1.00  0.00     0.019 A 
HETATM   10  C   PYC A   1      10.214   7.545  -5.335  1.00  0.00     0.019 A 
HETATM   11  C   PYC A   1       9.873  10.112 -10.420  1.00  0.00     0.214 A 
HETATM   12  C   PYC A   1      12.126   9.337  -6.251  1.00  0.00     0.021 A 
HETATM   13  C   PYC A   1       7.790   8.965 -10.890  1.00  0.00     0.005 A 
HETATM   14  C   PYC A   1      11.324   7.855  -4.541  1.00  0.00     0.002 A 
HETATM   15  C   PYC A   1       8.727   9.821 -11.298  1.00  0.00     0.044 A 
HETATM   16  C   PYC A   1      12.280   8.751  -4.998  1.00  0.00     0.002 A 
ENDROOT
TORSDOF 0
