MODEL 1
REMARK VINA RESULT:      -6.9      0.000      0.000
REMARK  1 active torsions:
REMARK  status: ('A' for Active; 'I' for Inactive)
REMARK    1  A    between atoms: C_13  and  C_14 
ROOT
HETATM    1  C   TDL     1      56.962  86.254 145.747  1.00  0.00     0.153 C 
HETATM    2  N   TDL     1      57.916  86.894 146.630  1.00  0.00    -0.346 N 
HETATM    3  C   TDL     1      58.714  87.984 146.086  1.00  0.00     0.228 C 
HETATM    4  C   TDL     1      60.029  88.180 146.842  1.00  0.00     0.239 C 
HETATM    5  O   TDL     1      60.992  88.729 146.308  1.00  0.00    -0.271 OA
HETATM    6  N   TDL     1      59.989  87.824 148.195  1.00  0.00    -0.323 N 
HETATM    7  C   TDL     1      58.640  87.757 148.831  1.00  0.00     0.185 C 
HETATM    8  C   TDL     1      57.677  86.877 148.003  1.00  0.00     0.243 C 
HETATM    9  O   TDL     1      56.703  86.312 148.499  1.00  0.00    -0.271 OA
HETATM   10  C   TDL     1      58.615  87.242 150.287  1.00  0.00     0.076 C 
HETATM   11  C   TDL     1      59.700  87.882 151.062  1.00  0.00    -0.018 A 
HETATM   12  C   TDL     1      60.858  88.280 150.434  1.00  0.00     0.045 A 
HETATM   13  C   TDL     1      61.195  88.148 148.982  1.00  0.00     0.172 C 
HETATM   14  N   TDL     1      61.688  88.815 151.383  1.00  0.00    -0.356 N 
HETATM   15  C   TDL     1      61.076  88.773 152.617  1.00  0.00     0.043 A 
HETATM   16  C   TDL     1      61.541  89.200 153.866  1.00  0.00     0.030 A 
HETATM   17  C   TDL     1      60.697  89.021 154.967  1.00  0.00     0.002 A 
HETATM   18  C   TDL     1      59.441  88.437 154.822  1.00  0.00     0.001 A 
HETATM   19  C   TDL     1      58.990  88.014 153.567  1.00  0.00     0.014 A 
HETATM   20  C   TDL     1      59.820  88.185 152.442  1.00  0.00    -0.001 A 
HETATM   21  H   TDL     1      62.621  89.168 151.217  1.00  0.00     0.166 HD
ENDROOT
BRANCH  13  22
HETATM   22  C   TDL     1      62.288  87.109 148.753  1.00  0.00    -0.027 A 
HETATM   23  C   TDL     1      63.646  87.480 148.694  1.00  0.00     0.049 A 
HETATM   24  C   TDL     1      64.586  86.497 148.470  1.00  0.00     0.105 A 
HETATM   25  C   TDL     1      64.232  85.179 148.311  1.00  0.00     0.105 A 
HETATM   26  O   TDL     1      65.929  86.688 148.376  1.00  0.00    -0.323 OA
HETATM   27  C   TDL     1      62.919  84.768 148.374  1.00  0.00     0.040 A 
HETATM   28  O   TDL     1      65.307  84.374 148.095  1.00  0.00    -0.323 OA
HETATM   29  C   TDL     1      61.942  85.743 148.599  1.00  0.00     0.012 A 
HETATM   30  C   TDL     1      66.378  85.340 148.134  1.00  0.00     0.352 A 
ENDBRANCH  13  22
TORSDOF 1
ENDMDL
