@<TRIPOS>MOLECULE
*****
 21 22 0 0 0
SMALL
GASTEIGER

@<TRIPOS>ATOM
      1  C1       -32.4461   -0.8499   49.4656 C.3     1  NDX1        0.0188
      2  N1       -31.3730   -2.7245   48.2337 N.3     1  NDX1       -0.2611
      3  O1       -27.9770   -4.8822   46.8877 O.3     1  NDX1       -0.3841
      4  C2       -32.6083   -2.2712   48.9038 C.3     1  NDX1        0.0733
      5  N2       -32.6595   -3.4534   46.2950 N.3     1  NDX1       -0.2869
      6  O2       -27.7697   -5.0953   49.9795 O.3     1  NDX1       -0.3602
      7  C3       -30.3621   -3.0908   49.2477 C.3     1  NDX1        0.0807
      8  O3       -26.7073   -3.1264   49.3743 O.3     1  NDX1       -0.3602
      9  C4       -29.0126   -3.4544   48.6038 C.3     1  NDX1        0.0989
     10  C5       -29.1921   -4.6227   47.6011 C.3     1  NDX1        0.1192
     11  C6       -30.3348   -4.3475   46.6003 C.3     1  NDX1        0.0570
     12  C7       -31.6279   -3.8410   47.2914 C.3     1  NDX1        0.1174
     13  C8       -32.6378   -4.2285   45.0324 C.3     1  NDX1        0.0550
     14  C9       -32.0761   -5.6510   45.2149 C.3     1  NDX1        0.0159
     15  C10      -30.6303   -5.6096   45.7552 C.3     1  NDX1        0.0065
     16  C11      -34.0282   -4.2513   44.3830 C.3     1  NDX1        0.0171
     17  C12      -27.9628   -3.7075   49.7149 C.3     1  NDX1        0.2320
     18  H4       -27.7630   -4.0980   46.3500 H       1  NDX1        0.2103
     19  H7       -32.5900   -2.4604   46.0817 H       1  NDX1        0.1244
     20  H12      -27.5110   -5.5100   49.1330 H       1  NDX1        0.2129
     21  H12      -26.0990   -3.2790   50.1220 H       1  NDX1        0.2129
@<TRIPOS>BOND
     1    16    13    1
     2    13    14    1
     3    13     5    1
     4    14    15    1
     5    15    11    1
     6    19     5    1
     7     5    12    1
     8    18     3    1
     9    11    12    1
    10    11    10    1
    11     3    10    1
    12    12     2    1
    13    10     9    1
    14     2     4    1
    15     2     7    1
    16     9     7    1
    17     9    17    1
    18     4     1    1
    19    20     6    1
    20     8    17    1
    21     8    21    1
    22    17     6    1
