@<TRIPOS>MOLECULE
*****
   21    22     1     0     0
SMALL
bcc


@<TRIPOS>ATOM
      1 C1         -32.4460    -0.8500    49.4660 c1         1 NDX      -0.035000
      2 N1         -31.3730    -2.7240    48.2340 n3         1 NDX      -0.090600
      3 O1         -27.9770    -4.8820    46.8880 oh         1 NDX      -0.527100
      4 C2         -32.6080    -2.2710    48.9040 c1         1 NDX      -0.572200
      5 N2         -32.6600    -3.4530    46.2950 n7         1 NDX      -0.574800
      6 O2         -27.7700    -5.0950    49.9800 oh         1 NDX      -0.463600
      7 C3         -30.3620    -3.0910    49.2480 c1         1 NDX       0.072500
      8 O3         -26.7070    -3.1260    49.3740 oh         1 NDX      -0.463600
      9 C4         -29.0130    -3.4540    48.6040 c2         1 NDX      -0.310700
     10 C5         -29.1920    -4.6230    47.6010 c2         1 NDX       0.261100
     11 C6         -30.3350    -4.3480    46.6000 c2         1 NDX      -0.120700
     12 C7         -31.6280    -3.8410    47.2910 c2         1 NDX       0.376000
     13 C8         -32.6380    -4.2290    45.0320 c2         1 NDX       0.006600
     14 C9         -32.0760    -5.6510    45.2150 c1         1 NDX      -0.149300
     15 C10        -30.6300    -5.6100    45.7550 c1         1 NDX      -0.128300
     16 C11        -34.0280    -4.2510    44.3830 c1         1 NDX       0.255700
     17 C12        -27.9630    -3.7080    49.7150 c2         1 NDX       0.511200
     18 H4         -27.7630    -4.0980    46.3500 ho         1 NDX       0.468000
     19 H7         -32.5900    -2.4600    46.0820 hn         1 NDX       0.514800
     20 H12        -27.5110    -5.5100    49.1330 ho         1 NDX       0.485500
     21 H2         -26.0990    -3.2790    50.1220 ho         1 NDX       0.485500
@<TRIPOS>BOND
     1    16    13 1   
     2    13    14 1   
     3    13     5 1   
     4    14    15 1   
     5    15    11 1   
     6    19     5 1   
     7     5    12 1   
     8    18     3 1   
     9    11    12 1   
    10    11    10 1   
    11     3    10 1   
    12    12     2 1   
    13    10     9 1   
    14     2     4 1   
    15     2     7 1   
    16     9     7 1   
    17     9    17 1   
    18     4     1 1   
    19    20     6 1   
    20     8    17 1   
    21     8    21 1   
    22    17     6 1   
@<TRIPOS>SUBSTRUCTURE
     1 NDX         1 TEMP              0 ****  ****    0 ROOT
