MODEL 1
REMARK VINA RESULT:    -6.439      0.000      0.000
REMARK INTER + INTRA:         -15.404
REMARK INTER:                 -11.333
REMARK INTRA:                  -4.071
REMARK UNBOUND:                -4.071
REMARK  17 active torsions:
REMARK  status: ('A' for Active; 'I' for Inactive)
REMARK    1  A    between atoms: C3_3  and  C21_38 
REMARK    2  A    between atoms: C3_3  and  O12_40 
REMARK    3  A    between atoms: C4_4  and  O6_25 
REMARK    4  A    between atoms: C5_5  and  O2_7 
REMARK    5  A    between atoms: O2_7  and  C6_8 
REMARK    6  A    between atoms: C7_9  and  N4_21 
REMARK    7  A    between atoms: C8_10  and  O5_20 
REMARK    8  A    between atoms: C9_11  and  N1_16 
REMARK    9  A    between atoms: C10_12  and  O4_15 
REMARK   10  A    between atoms: C11_13  and  O3_14 
REMARK       I    between atoms: N1_16  and  C12_17 
REMARK       I    between atoms: C12_17  and  N2_18 
REMARK       I    between atoms: C12_17  and  N3_19 
REMARK       I    between atoms: N4_21  and  C13_22 
REMARK       I    between atoms: C13_22  and  N5_23 
REMARK       I    between atoms: C13_22  and  N6_24 
REMARK   11  A    between atoms: O6_25  and  C14_26 
REMARK   12  A    between atoms: C15_27  and  N7_36 
REMARK   13  A    between atoms: C16_28  and  O10_35 
REMARK   14  A    between atoms: C17_29  and  O9_34 
REMARK   15  A    between atoms: C18_30  and  C19_32 
REMARK   16  A    between atoms: C19_32  and  O8_33 
REMARK   17  A    between atoms: C21_38  and  O11_39 
ROOT
HETATM    1  C6  STM     1       9.180 -31.290  -5.448  1.00  0.00     0.192 C 
HETATM    2  C7  STM     1       9.454 -29.763  -5.523  1.00  0.00     0.287 C 
HETATM    3  C8  STM     1       9.121 -29.058  -4.179  1.00  0.00     0.190 C 
HETATM    4  C9  STM     1       9.899 -29.726  -3.007  1.00  0.00     0.287 C 
HETATM    5  C10 STM     1       9.657 -31.255  -2.944  1.00  0.00     0.185 C 
HETATM    6  C11 STM     1      10.002 -31.919  -4.295  1.00  0.00     0.180 C 
ENDROOT
BRANCH   1   7
HETATM    7  O2  STM     1       9.552 -31.868  -6.693  1.00  0.00    -0.348 OA
BRANCH   7   8
HETATM    8  C5  STM     1       8.540 -32.705  -7.242  1.00  0.00     0.293 C 
HETATM    9  C4  STM     1       8.721 -32.800  -8.758  1.00  0.00     0.218 C 
HETATM   10  C3  STM     1       9.602 -34.042  -8.937  1.00  0.00     0.135 C 
HETATM   11  C2  STM     1       9.546 -34.717  -7.534  1.00  0.00     0.160 C 
HETATM   12  C1  STM     1       9.093 -36.181  -7.546  1.00  0.00     0.043 C 
HETATM   13  O1  STM     1       8.669 -33.995  -6.705  1.00  0.00    -0.350 OA
BRANCH   9  14
HETATM   14  O6  STM     1       7.456 -32.991  -9.381  1.00  0.00    -0.346 OA
BRANCH  14  15
HETATM   15  C14 STM     1       7.041 -31.847 -10.124  1.00  0.00     0.297 C 
HETATM   16  C15 STM     1       7.259 -32.091 -11.648  1.00  0.00     0.305 C 
HETATM   17  C16 STM     1       6.480 -31.062 -12.518  1.00  0.00     0.187 C 
HETATM   18  C17 STM     1       6.007 -29.862 -11.665  1.00  0.00     0.180 C 
HETATM   19  C18 STM     1       5.230 -30.350 -10.396  1.00  0.00     0.179 C 
HETATM   20  O7  STM     1       5.672 -31.605  -9.868  1.00  0.00    -0.349 OA
BRANCH  16  21
HETATM   21  N7  STM     1       6.972 -33.484 -12.085  1.00  0.00     0.091 N 
HETATM   22  C20 STM     1       7.969 -34.071 -12.996  1.00  0.00     0.307 C 
HETATM   23  H34 STM     1       6.046 -33.502 -12.567  1.00  0.00     0.316 HD
ENDBRANCH  16  21
BRANCH  17  24
HETATM   24  O10 STM     1       7.312 -30.614 -13.560  1.00  0.00    -0.391 OA
HETATM   25  H33 STM     1       6.728 -30.173 -14.229  1.00  0.00     0.210 HD
ENDBRANCH  17  24
BRANCH  18  26
HETATM   26  O9  STM     1       5.215 -28.976 -12.418  1.00  0.00    -0.390 OA
HETATM   27  H32 STM     1       4.353 -28.857 -11.948  1.00  0.00     0.210 HD
ENDBRANCH  18  26
BRANCH  19  28
HETATM   28  C19 STM     1       5.246 -29.282  -9.287  1.00  0.00     0.198 C 
BRANCH  28  29
HETATM   29  O8  STM     1       6.183 -28.282  -9.586  1.00  0.00    -0.398 OA
HETATM   30  H31 STM     1       6.954 -28.406  -8.969  1.00  0.00     0.209 HD
ENDBRANCH  28  29
ENDBRANCH  19  28
ENDBRANCH  14  15
ENDBRANCH   9  14
BRANCH  10  31
HETATM   31  C21 STM     1      11.056 -33.653  -9.320  1.00  0.00     0.207 C 
BRANCH  31  32
HETATM   32  O11 STM     1      11.281 -32.281  -9.141  1.00  0.00    -0.398 OA
HETATM   33  H6  STM     1      11.925 -32.207  -8.385  1.00  0.00     0.209 HD
ENDBRANCH  31  32
ENDBRANCH  10  31
BRANCH  10  34
HETATM   34  O12 STM     1       9.061 -34.858  -9.959  1.00  0.00    -0.382 OA
HETATM   35  H39 STM     1       9.705 -35.581 -10.155  1.00  0.00     0.210 HD
ENDBRANCH  10  34
ENDBRANCH   7   8
ENDBRANCH   1   7
BRANCH   2  36
HETATM   36  N4  STM     1       8.818 -29.130  -6.706  1.00  0.00     0.156 N 
HETATM   37  C13 STM     1       9.718 -28.502  -7.691  1.00  0.00     0.674 C 
HETATM   38  N5  STM     1       8.950 -27.548  -8.499  1.00  0.00     0.142 N 
HETATM   39  N6  STM     1      10.326 -29.519  -8.560  1.00  0.00     0.142 N 
HETATM   40  H20 STM     1       9.622 -26.974  -9.066  1.00  0.00     0.318 HD
HETATM   41  H21 STM     1       8.461 -26.883  -7.855  1.00  0.00     0.318 HD
HETATM   42  H22 STM     1      11.337 -29.264  -8.718  1.00  0.00     0.318 HD
HETATM   43  H23 STM     1       9.864 -29.532  -9.504  1.00  0.00     0.318 HD
HETATM   44  H3  STM     1       8.210 -29.830  -7.195  1.00  0.00     0.321 HD
ENDBRANCH   2  36
BRANCH   6  45
HETATM   45  O3  STM     1       9.721 -33.292  -4.210  1.00  0.00    -0.390 OA
HETATM   46  H13 STM     1      10.373 -33.752  -4.796  1.00  0.00     0.210 HD
ENDBRANCH   6  45
BRANCH   3  47
HETATM   47  O5  STM     1       9.431 -27.687  -4.254  1.00  0.00    -0.391 OA
HETATM   48  H19 STM     1      10.405 -27.581  -4.085  1.00  0.00     0.210 HD
ENDBRANCH   3  47
BRANCH   5  49
HETATM   49  O4  STM     1      10.458 -31.834  -1.944  1.00  0.00    -0.391 OA
HETATM   50  H14 STM     1      10.151 -31.465  -1.070  1.00  0.00     0.210 HD
ENDBRANCH   5  49
BRANCH   4  51
HETATM   51  N1  STM     1       9.693 -29.089  -1.681  1.00  0.00     0.156 N 
HETATM   52  C12 STM     1      10.841 -28.495  -0.959  1.00  0.00     0.674 C 
HETATM   53  N2  STM     1      11.657 -27.655  -1.835  1.00  0.00     0.142 N 
HETATM   54  N3  STM     1      11.667 -29.527  -0.334  1.00  0.00     0.142 N 
HETATM   55  H15 STM     1      12.456 -27.266  -1.275  1.00  0.00     0.318 HD
HETATM   56  H16 STM     1      11.088 -26.821  -2.115  1.00  0.00     0.318 HD
HETATM   57  H17 STM     1      12.399 -29.057   0.241  1.00  0.00     0.318 HD
HETATM   58  H18 STM     1      11.072 -30.050   0.348  1.00  0.00     0.318 HD
HETATM   59  H1  STM     1       9.195 -29.756  -1.048  1.00  0.00     0.321 HD
ENDBRANCH   4  51
TORSDOF 17
ENDMDL
