REMARK  4 active torsions:
REMARK  status: ('A' for Active; 'I' for Inactive)
REMARK    1  A    between atoms: C3_3  and  O5_20 
REMARK    2  A    between atoms: C6_6  and  C7_7 
REMARK    3  A    between atoms: C11_12  and  O4_19 
REMARK    4  A    between atoms: C13_14  and  O3_18 
ROOT
HETATM    1  C7  API     1       0.470  -0.473  -0.306  1.00  0.00     0.090 A 
HETATM    2  C8  API     1      -0.133  -1.477  -0.960  1.00  0.00     0.094 A 
HETATM    3  C9  API     1      -1.599  -1.482  -1.062  1.00  0.00     0.190 A 
HETATM    4  O1  API     1      -2.201  -2.377  -1.643  1.00  0.00    -0.287 OA
HETATM    5  C10 API     1      -2.317  -0.366  -0.436  1.00  0.00     0.081 A 
HETATM    6  C11 API     1      -3.712  -0.275  -0.475  1.00  0.00     0.085 A 
HETATM    7  C12 API     1      -4.362   0.799   0.129  1.00  0.00     0.074 A 
HETATM    8  C13 API     1      -3.606   1.778   0.768  1.00  0.00     0.071 A 
HETATM    9  C14 API     1      -2.216   1.698   0.813  1.00  0.00     0.075 A 
HETATM   10  C15 API     1      -1.571   0.620   0.207  1.00  0.00     0.095 A 
HETATM   11  O2  API     1      -0.201   0.591   0.278  1.00  0.00    -0.309 OA
ENDROOT
BRANCH   1  12
HETATM   12  C6  API     1       1.939  -0.404  -0.177  1.00  0.00    -0.002 A 
HETATM   13  C1  API     1       2.600   0.824  -0.343  1.00  0.00     0.017 A 
HETATM   14  C2  API     1       3.990   0.915  -0.216  1.00  0.00     0.037 A 
HETATM   15  C3  API     1       4.724  -0.226   0.085  1.00  0.00     0.065 A 
HETATM   16  C4  API     1       4.092  -1.450   0.264  1.00  0.00     0.037 A 
HETATM   17  C5  API     1       2.704  -1.539   0.137  1.00  0.00     0.017 A 
BRANCH  15  18
HETATM   18  O5  API     1       6.079  -0.186   0.219  1.00  0.00    -0.361 OA
HETATM   19  H10 API     1       6.380   0.727   0.076  1.00  0.00     0.217 HD
ENDBRANCH  15  18
ENDBRANCH   1  12
BRANCH   6  20
HETATM   20  O4  API     1      -4.503  -1.208  -1.090  1.00  0.00    -0.360 OA
HETATM   21  H9  API     1      -3.919  -1.903  -1.470  1.00  0.00     0.217 HD
ENDBRANCH   6  20
BRANCH   8  22
HETATM   22  O3  API     1      -4.197   2.847   1.373  1.00  0.00    -0.361 OA
HETATM   23  H8  API     1      -5.161   2.772   1.271  1.00  0.00     0.217 HD
ENDBRANCH   8  22
TORSDOF 4
