REMARK  10 active torsions:
REMARK  status: ('A' for Active; 'I' for Inactive)
REMARK    1  A    between atoms: C4_4  and  C7_7 
REMARK    2  A    between atoms: C11_12  and  O11_32 
REMARK    3  A    between atoms: C12_13  and  O10_31 
REMARK    4  A    between atoms: C13_14  and  O3_18 
REMARK    5  A    between atoms: O3_18  and  C16_19 
REMARK    6  A    between atoms: C17_20  and  O9_30 
REMARK    7  A    between atoms: C18_21  and  O8_29 
REMARK    8  A    between atoms: C19_22  and  O7_28 
REMARK    9  A    between atoms: C20_23  and  C21_25 
REMARK   10  A    between atoms: C21_25  and  O6_27 
ROOT
HETATM    1  C7  BAI     1      -3.925  -0.416  -0.503  1.00  0.00     0.090 A 
HETATM    2  C8  BAI     1      -4.024  -1.587  -1.150  1.00  0.00     0.094 A 
HETATM    3  C9  BAI     1      -2.797  -2.328  -1.470  1.00  0.00     0.190 A 
HETATM    4  O1  BAI     1      -2.821  -3.404  -2.057  1.00  0.00    -0.287 OA
HETATM    5  C10 BAI     1      -1.526  -1.727  -1.058  1.00  0.00     0.084 A 
HETATM    6  C11 BAI     1      -0.304  -2.348  -1.319  1.00  0.00     0.118 A 
HETATM    7  C12 BAI     1       0.887  -1.743  -0.913  1.00  0.00     0.134 A 
HETATM    8  C13 BAI     1       0.863  -0.523  -0.234  1.00  0.00     0.110 A 
HETATM    9  C14 BAI     1      -0.364   0.105   0.003  1.00  0.00     0.078 A 
HETATM   10  C15 BAI     1      -1.556  -0.501  -0.400  1.00  0.00     0.096 A 
HETATM   11  O2  BAI     1      -2.723   0.165  -0.123  1.00  0.00    -0.309 OA
ENDROOT
BRANCH   8  12
HETATM   12  O3  BAI     1       1.971   0.173   0.161  1.00  0.00    -0.315 OA
BRANCH  12  13
HETATM   13  C16 BAI     1       2.907  -0.581   0.941  1.00  0.00     0.299 C 
HETATM   14  C17 BAI     1       4.225  -0.697   0.140  1.00  0.00     0.205 C 
HETATM   15  C18 BAI     1       5.368  -0.017   0.881  1.00  0.00     0.183 C 
HETATM   16  C19 BAI     1       4.948   1.390   1.296  1.00  0.00     0.189 C 
HETATM   17  C20 BAI     1       3.704   1.334   2.200  1.00  0.00     0.253 C 
HETATM   18  O4  BAI     1       3.104   0.032   2.226  1.00  0.00    -0.340 OA
BRANCH  14  19
HETATM   19  O9  BAI     1       4.605  -2.067  -0.090  1.00  0.00    -0.388 OA
HETATM   20  H16 BAI     1       3.844  -2.465  -0.563  1.00  0.00     0.210 HD
ENDBRANCH  14  19
BRANCH  15  21
HETATM   21  O8  BAI     1       6.525   0.069   0.029  1.00  0.00    -0.390 OA
HETATM   22  H15 BAI     1       6.658  -0.842  -0.302  1.00  0.00     0.210 HD
ENDBRANCH  15  21
BRANCH  16  23
HETATM   23  O7  BAI     1       6.053   1.999   1.987  1.00  0.00    -0.390 OA
HETATM   24  H14 BAI     1       6.835   1.807   1.430  1.00  0.00     0.210 HD
ENDBRANCH  16  23
BRANCH  17  25
HETATM   25  C21 BAI     1       2.694   2.454   1.908  1.00  0.00     0.172 C 
HETATM   26  O5  BAI     1       1.476   2.383   1.993  1.00  0.00    -0.648 OA
BRANCH  25  27
HETATM   27  O6  BAI     1       3.258   3.638   1.599  1.00  0.00    -0.774 OA
HETATM   28  H13 BAI     1       2.498   4.250   1.510  1.00  0.00     0.167 HD
ENDBRANCH  25  27
ENDBRANCH  17  25
ENDBRANCH  12  13
ENDBRANCH   8  12
BRANCH   7  29
HETATM   29  O10 BAI     1       2.065  -2.377  -1.220  1.00  0.00    -0.356 OA
HETATM   30  H17 BAI     1       1.778  -3.166  -1.733  1.00  0.00     0.218 HD
ENDBRANCH   7  29
BRANCH   6  31
HETATM   31  O11 BAI     1      -0.190  -3.547  -1.980  1.00  0.00    -0.357 OA
HETATM   32  H18 BAI     1      -1.102  -3.854  -2.201  1.00  0.00     0.217 HD
ENDBRANCH   6  31
BRANCH   1  33
HETATM   33  C4  BAI     1      -5.117   0.384  -0.160  1.00  0.00    -0.002 A 
HETATM   34  C3  BAI     1      -6.278  -0.211   0.358  1.00  0.00     0.014 A 
HETATM   35  C2  BAI     1      -7.394   0.565   0.684  1.00  0.00     0.001 A 
HETATM   36  C1  BAI     1      -7.362   1.945   0.503  1.00  0.00     0.000 A 
HETATM   37  C6  BAI     1      -6.214   2.552   0.000  1.00  0.00     0.001 A 
HETATM   38  C5  BAI     1      -5.098   1.777  -0.326  1.00  0.00     0.014 A 
ENDBRANCH   1  33
TORSDOF 10
