REMARK  2 active torsions:
REMARK  status: ('A' for Active; 'I' for Inactive)
REMARK    1  A    between atoms: O1_2  and  C2_3 
REMARK    2  A    between atoms: C3_4  and  O4_24 
ROOT
HETATM    1  C2  BER     1      -3.873  -0.481   1.354  1.00  0.00     0.102 A 
HETATM    2  C3  BER     1      -3.200   0.180   0.308  1.00  0.00     0.114 A 
HETATM    3  C4  BER     1      -1.784   0.130   0.220  1.00  0.00     0.026 A 
HETATM    4  C5  BER     1      -1.066   0.814  -0.767  1.00  0.00     0.106 A 
HETATM    5  N1  BER     1       0.284   0.765  -0.846  1.00  0.00    -0.355 N 
HETATM    6  C6  BER     1       1.012   0.016   0.030  1.00  0.00     0.046 A 
HETATM    7  C7  BER     1       0.340  -0.681   1.044  1.00  0.00     0.043 A 
HETATM    8  C8  BER     1      -1.054  -0.628   1.147  1.00  0.00    -0.019 A 
HETATM    9  C9  BER     1      -1.735  -1.314   2.159  1.00  0.00     0.015 A 
HETATM   10  C10 BER     1      -3.126  -1.236   2.263  1.00  0.00     0.040 A 
HETATM   11  C11 BER     1       2.480   0.031  -0.138  1.00  0.00    -0.000 A 
HETATM   12  C12 BER     1       3.309  -0.973   0.400  1.00  0.00     0.054 A 
HETATM   13  C13 BER     1       4.677  -0.871   0.237  1.00  0.00     0.105 A 
HETATM   14  C14 BER     1       5.254   0.176  -0.432  1.00  0.00     0.105 A 
HETATM   15  C15 BER     1       4.496   1.180  -0.988  1.00  0.00     0.047 A 
HETATM   16  C16 BER     1       3.100   1.096  -0.853  1.00  0.00    -0.041 A 
HETATM   17  C17 BER     1       2.222   2.160  -1.451  1.00  0.00     0.060 C 
HETATM   18  C18 BER     1       0.946   1.508  -1.951  1.00  0.00     0.133 C 
HETATM   19  O2  BER     1       6.608   0.086  -0.473  1.00  0.00    -0.323 OA
HETATM   20  C19 BER     1       6.824  -1.143   0.255  1.00  0.00     0.352 A 
HETATM   21  O3  BER     1       5.595  -1.758   0.703  1.00  0.00    -0.323 OA
ENDROOT
BRANCH   1  22
HETATM   22  O1  BER     1      -5.228  -0.323   1.440  1.00  0.00    -0.353 OA
HETATM   23  C1  BER     1      -5.913  -0.919   2.536  1.00  0.00     0.210 C 
ENDBRANCH   1  22
BRANCH   2  24
HETATM   24  O4  BER     1      -3.798   0.958  -0.660  1.00  0.00    -0.352 OA
HETATM   25  C20 BER     1      -5.090   0.550  -1.109  1.00  0.00     0.210 C 
ENDBRANCH   2  24
TORSDOF 2
