REMARK  6 active torsions:
REMARK  status: ('A' for Active; 'I' for Inactive)
REMARK    1  A    between atoms: C2_2  and  O6_21 
REMARK    2  A    between atoms: C3_3  and  C10_13 
REMARK    3  A    between atoms: C6_7  and  O3_12 
REMARK    4  A    between atoms: C8_9  and  O2_11 
REMARK    5  A    between atoms: C12_15  and  O5_20 
REMARK    6  A    between atoms: C13_16  and  O4_19 
ROOT
HETATM    1  C1  CAT     1       1.886  -1.030  -1.017  1.00  0.00     0.079 C 
HETATM    2  C2  CAT     1       0.437  -1.317  -0.630  1.00  0.00     0.156 C 
HETATM    3  C3  CAT     1      -0.314   0.024  -0.529  1.00  0.00     0.191 C 
HETATM    4  O1  CAT     1       0.251   0.872   0.479  1.00  0.00    -0.338 OA
HETATM    5  C4  CAT     1       1.613   1.003   0.437  1.00  0.00     0.081 A 
HETATM    6  C5  CAT     1       2.132   2.066   1.178  1.00  0.00     0.074 A 
HETATM    7  C6  CAT     1       3.502   2.287   1.201  1.00  0.00     0.071 A 
HETATM    8  C7  CAT     1       4.363   1.459   0.493  1.00  0.00     0.073 A 
HETATM    9  C8  CAT     1       3.839   0.393  -0.237  1.00  0.00     0.077 A 
HETATM   10  C9  CAT     1       2.461   0.131  -0.260  1.00  0.00     0.011 A 
ENDROOT
BRANCH   3  11
HETATM   11  C10 CAT     1      -1.781  -0.186  -0.180  1.00  0.00    -0.024 A 
HETATM   12  C11 CAT     1      -2.165  -0.623   1.099  1.00  0.00     0.049 A 
HETATM   13  C12 CAT     1      -3.507  -0.835   1.381  1.00  0.00     0.099 A 
HETATM   14  C13 CAT     1      -4.484  -0.616   0.414  1.00  0.00     0.098 A 
HETATM   15  C14 CAT     1      -4.128  -0.183  -0.856  1.00  0.00     0.040 A 
HETATM   16  C15 CAT     1      -2.777   0.029  -1.152  1.00  0.00     0.013 A 
BRANCH  13  17
HETATM   17  O5  CAT     1      -3.864  -1.267   2.626  1.00  0.00    -0.358 OA
HETATM   18  H13 CAT     1      -4.840  -1.324   2.595  1.00  0.00     0.217 HD
ENDBRANCH  13  17
BRANCH  14  19
HETATM   19  O4  CAT     1      -5.786  -0.844   0.763  1.00  0.00    -0.358 OA
HETATM   20  H12 CAT     1      -6.348  -0.615   0.003  1.00  0.00     0.217 HD
ENDBRANCH  14  19
ENDBRANCH   3  11
BRANCH   2  21
HETATM   21  O6  CAT     1      -0.120  -2.184  -1.624  1.00  0.00    -0.392 OA
HETATM   22  H14 CAT     1      -1.006  -2.443  -1.310  1.00  0.00     0.210 HD
ENDBRANCH   2  21
BRANCH   9  23
HETATM   23  O2  CAT     1       4.753  -0.365  -0.916  1.00  0.00    -0.360 OA
HETATM   24  H7  CAT     1       4.295  -1.003  -1.485  1.00  0.00     0.217 HD
ENDBRANCH   9  23
BRANCH   7  25
HETATM   25  O3  CAT     1       3.968   3.339   1.932  1.00  0.00    -0.361 OA
HETATM   26  H8  CAT     1       4.937   3.357   1.865  1.00  0.00     0.217 HD
ENDBRANCH   7  25
TORSDOF 6
