REMARK  10 active torsions:
REMARK  status: ('A' for Active; 'I' for Inactive)
REMARK    1  A    between atoms: O1_2  and  C2_3 
REMARK    2  A    between atoms: C3_4  and  O6_27 
REMARK    3  A    between atoms: C6_7  and  C8_9 
REMARK    4  A    between atoms: C9_10  and  C10_11 
REMARK    5  A    between atoms: C10_11  and  C11_13 
REMARK    6  A    between atoms: C11_13  and  C12_14 
REMARK    7  A    between atoms: C12_14  and  C13_16 
REMARK    8  A    between atoms: C14_17  and  C15_18 
REMARK    9  A    between atoms: C17_20  and  O5_25 
REMARK   10  A    between atoms: C18_21  and  O4_24 
ROOT
HETATM    1  C11 CUR     1       0.944   1.507  -0.103  1.00  0.00     0.165 C 
ENDROOT
BRANCH   1   2
HETATM    2  C10 CUR     1       0.702   0.259  -0.915  1.00  0.00     0.156 C 
HETATM    3  O2  CUR     1      -0.339   0.058  -1.539  1.00  0.00    -0.293 OA
BRANCH   2   4
HETATM    4  C9  CUR     1       1.745  -0.806  -0.953  1.00  0.00     0.051 C 
HETATM    5  C8  CUR     1       2.894  -0.776  -0.262  1.00  0.00     0.015 C 
BRANCH   5   6
HETATM    6  C6  CUR     1       3.892  -1.856  -0.321  1.00  0.00    -0.033 A 
HETATM    7  C5  CUR     1       4.245  -2.472  -1.529  1.00  0.00     0.014 A 
HETATM    8  C4  CUR     1       5.217  -3.473  -1.555  1.00  0.00     0.040 A 
HETATM    9  C3  CUR     1       5.846  -3.854  -0.371  1.00  0.00     0.099 A 
HETATM   10  C2  CUR     1       5.522  -3.243   0.848  1.00  0.00     0.102 A 
HETATM   11  C7  CUR     1       4.547  -2.239   0.861  1.00  0.00     0.051 A 
BRANCH   9  12
HETATM   12  O6  CUR     1       6.800  -4.836  -0.394  1.00  0.00    -0.358 OA
HETATM   13  H20 CUR     1       6.911  -5.153  -1.303  1.00  0.00     0.217 HD
ENDBRANCH   9  12
BRANCH  10  14
HETATM   14  O1  CUR     1       6.206  -3.690   1.948  1.00  0.00    -0.353 OA
HETATM   15  C1  CUR     1       5.896  -3.101   3.202  1.00  0.00     0.210 C 
ENDBRANCH  10  14
ENDBRANCH   5   6
ENDBRANCH   2   4
ENDBRANCH   1   2
BRANCH   1  16
HETATM   16  C12 CUR     1      -0.065   2.611  -0.300  1.00  0.00     0.156 C 
HETATM   17  O3  CUR     1       0.290   3.736  -0.650  1.00  0.00    -0.293 OA
BRANCH  16  18
HETATM   18  C13 CUR     1      -1.492   2.320   0.024  1.00  0.00     0.051 C 
HETATM   19  C14 CUR     1      -2.416   3.289  -0.046  1.00  0.00     0.015 C 
BRANCH  19  20
HETATM   20  C15 CUR     1      -3.836   3.064   0.248  1.00  0.00    -0.033 A 
HETATM   21  C16 CUR     1      -4.524   1.944  -0.252  1.00  0.00     0.051 A 
HETATM   22  C17 CUR     1      -5.881   1.766   0.025  1.00  0.00     0.102 A 
HETATM   23  C18 CUR     1      -6.542   2.726   0.800  1.00  0.00     0.099 A 
HETATM   24  C19 CUR     1      -5.884   3.847   1.288  1.00  0.00     0.040 A 
HETATM   25  C20 CUR     1      -4.529   4.019   1.004  1.00  0.00     0.014 A 
BRANCH  22  26
HETATM   26  O5  CUR     1      -6.664   0.721  -0.394  1.00  0.00    -0.353 OA
HETATM   27  C21 CUR     1      -6.036  -0.255  -1.218  1.00  0.00     0.210 C 
ENDBRANCH  22  26
BRANCH  23  28
HETATM   28  O4  CUR     1      -7.871   2.579   1.091  1.00  0.00    -0.358 OA
HETATM   29  H16 CUR     1      -8.133   1.747   0.651  1.00  0.00     0.217 HD
ENDBRANCH  23  28
ENDBRANCH  19  20
ENDBRANCH  16  18
ENDBRANCH   1  16
TORSDOF 10
