REMARK  5 active torsions:
REMARK  status: ('A' for Active; 'I' for Inactive)
REMARK    1  A    between atoms: C2_2  and  C7_10 
REMARK    2  A    between atoms: C4_4  and  O3_9 
REMARK    3  A    between atoms: C5_5  and  O2_8 
REMARK    4  A    between atoms: C6_6  and  O1_7 
REMARK    5  A    between atoms: C7_10  and  O5_12 
ROOT
HETATM    1  C1  GAL     1       0.285   1.021   0.409  1.00  0.00     0.057 A 
HETATM    2  C2  GAL     1       1.059   0.134  -0.360  1.00  0.00     0.043 A 
HETATM    3  C3  GAL     1       0.525  -1.096  -0.775  1.00  0.00     0.057 A 
HETATM    4  C4  GAL     1      -0.775  -1.427  -0.418  1.00  0.00     0.102 A 
HETATM    5  C5  GAL     1      -1.542  -0.553   0.341  1.00  0.00     0.132 A 
HETATM    6  C6  GAL     1      -1.016   0.666   0.753  1.00  0.00     0.102 A 
ENDROOT
BRANCH   2   7
HETATM    7  C7  GAL     1       2.450   0.458  -0.758  1.00  0.00     0.176 C 
HETATM    8  O4  GAL     1       3.191  -0.245  -1.418  1.00  0.00    -0.646 OA
BRANCH   7   9
HETATM    9  O5  GAL     1       2.852   1.659  -0.304  1.00  0.00    -0.773 OA
HETATM   10  H6  GAL     1       3.771   1.733  -0.639  1.00  0.00     0.167 HD
ENDBRANCH   7   9
ENDBRANCH   2   7
BRANCH   6  11
HETATM   11  O1  GAL     1      -1.818   1.485   1.498  1.00  0.00    -0.358 OA
HETATM   12  H3  GAL     1      -1.320   2.294   1.712  1.00  0.00     0.217 HD
ENDBRANCH   6  11
BRANCH   4  13
HETATM   13  O3  GAL     1      -1.298  -2.622  -0.819  1.00  0.00    -0.358 OA
HETATM   14  H5  GAL     1      -2.207  -2.632  -0.456  1.00  0.00     0.217 HD
ENDBRANCH   4  13
BRANCH   5  15
HETATM   15  O2  GAL     1      -2.820  -0.908   0.676  1.00  0.00    -0.356 OA
HETATM   16  H4  GAL     1      -3.153  -0.150   1.200  1.00  0.00     0.218 HD
ENDBRANCH   5  15
TORSDOF 5
