REMARK  6 active torsions:
REMARK  status: ('A' for Active; 'I' for Inactive)
REMARK    1  A    between atoms: C3_3  and  C4_4 
REMARK    2  A    between atoms: C4_4  and  C5_5 
REMARK    3  A    between atoms: C5_5  and  C6_6 
REMARK    4  A    between atoms: C6_6  and  C8_8 
REMARK    5  A    between atoms: C6_6  and  O2_31 
REMARK    6  A    between atoms: C23_23  and  O1_27 
ROOT
HETATM    1  C8  GIN     1       2.547   0.500  -0.289  1.00  0.00     0.024 C 
HETATM    2  C9  GIN     1       2.149   1.850  -0.890  1.00  0.00     0.009 C 
HETATM    3  C10 GIN     1       1.029   2.319   0.032  1.00  0.00     0.011 C 
HETATM    4  C11 GIN     1       0.237   1.038   0.433  1.00  0.00    -0.032 C 
HETATM    5  C12 GIN     1       1.159  -0.161  -0.026  1.00  0.00     0.001 C 
HETATM    6  C13 GIN     1       0.556  -0.968  -1.171  1.00  0.00     0.006 C 
HETATM    7  C14 GIN     1      -0.843  -1.495  -0.844  1.00  0.00     0.006 C 
HETATM    8  C15 GIN     1      -1.762  -0.508  -0.077  1.00  0.00     0.003 C 
HETATM    9  C16 GIN     1      -1.259   0.977  -0.189  1.00  0.00    -0.032 C 
HETATM   10  C17 GIN     1      -2.211   1.909   0.619  1.00  0.00     0.011 C 
HETATM   11  C18 GIN     1      -3.705   1.695   0.362  1.00  0.00     0.007 C 
HETATM   12  C19 GIN     1      -4.112   0.231   0.622  1.00  0.00     0.004 C 
HETATM   13  C20 GIN     1      -3.321  -0.760  -0.302  1.00  0.00    -0.035 C 
HETATM   14  C21 GIN     1      -3.649  -2.234   0.118  1.00  0.00     0.012 C 
HETATM   15  C22 GIN     1      -4.880  -2.404   1.014  1.00  0.00     0.033 C 
HETATM   16  C23 GIN     1      -6.044  -1.507   0.608  1.00  0.00     0.126 C 
HETATM   17  C24 GIN     1      -5.676   0.008   0.699  1.00  0.00    -0.017 C 
HETATM   18  C25 GIN     1      -6.468   0.835  -0.337  1.00  0.00     0.018 C 
HETATM   19  C26 GIN     1      -6.148   0.502   2.098  1.00  0.00     0.018 C 
HETATM   20  C27 GIN     1      -3.723  -0.593  -1.788  1.00  0.00     0.016 C 
HETATM   21  C28 GIN     1      -1.306   1.452  -1.678  1.00  0.00     0.016 C 
HETATM   22  C29 GIN     1       0.238   1.008   1.993  1.00  0.00     0.016 C 
ENDROOT
BRANCH   1  23
HETATM   23  C6  GIN     1       3.630  -0.276  -1.084  1.00  0.00     0.058 C 
HETATM   24  C7  GIN     1       3.935  -1.627  -0.420  1.00  0.00     0.046 C 
BRANCH  23  25
HETATM   25  C5  GIN     1       4.927   0.552  -1.306  1.00  0.00     0.041 C 
BRANCH  25  26
HETATM   26  C4  GIN     1       5.611   1.195  -0.093  1.00  0.00     0.030 C 
BRANCH  26  27
HETATM   27  C3  GIN     1       6.198   0.233   0.898  1.00  0.00    -0.025 C 
HETATM   28  C2  GIN     1       7.415  -0.343   0.850  1.00  0.00    -0.091 C 
HETATM   29  C1  GIN     1       7.871  -1.274   1.943  1.00  0.00     0.042 C 
HETATM   30  C30 GIN     1       8.418  -0.144  -0.253  1.00  0.00     0.042 C 
ENDBRANCH  26  27
ENDBRANCH  25  26
ENDBRANCH  23  25
BRANCH  23  31
HETATM   31  O2  GIN     1       3.134  -0.555  -2.403  1.00  0.00    -0.390 OA
HETATM   32  H49 GIN     1       3.796  -1.098  -2.864  1.00  0.00     0.210 HD
ENDBRANCH  23  31
ENDBRANCH   1  23
BRANCH  16  33
HETATM   33  O1  GIN     1      -6.481  -1.874  -0.698  1.00  0.00    -0.395 OA
HETATM   34  H39 GIN     1      -6.702  -2.821  -0.682  1.00  0.00     0.210 HD
ENDBRANCH  16  33
TORSDOF 6
