REMARK  15 active torsions:
REMARK  status: ('A' for Active; 'I' for Inactive)
REMARK    1  A    between atoms: C5_5  and  C42_56 
REMARK    2  A    between atoms: C15_16  and  O2_29 
REMARK    3  A    between atoms: O2_29  and  C28_30 
REMARK    4  A    between atoms: C29_31  and  O8_41 
REMARK    5  A    between atoms: C30_32  and  O7_40 
REMARK    6  A    between atoms: C31_33  and  O6_39 
REMARK    7  A    between atoms: C32_34  and  C33_36 
REMARK    8  A    between atoms: C33_36  and  O5_38 
REMARK    9  A    between atoms: O8_41  and  C34_42 
REMARK   10  A    between atoms: C35_43  and  O14_53 
REMARK   11  A    between atoms: C36_44  and  O13_52 
REMARK   12  A    between atoms: C37_45  and  O12_51 
REMARK   13  A    between atoms: C38_46  and  C39_48 
REMARK   14  A    between atoms: C39_48  and  O11_50 
REMARK   15  A    between atoms: C42_56  and  O16_58 
ROOT
HETATM    1  C1  GRA     1      -8.460   0.235  -0.250  1.00  0.00     0.016 C 
HETATM    2  C2  GRA     1      -7.089  -0.436  -0.555  1.00  0.00    -0.036 C 
HETATM    3  C3  GRA     1      -7.334  -1.948  -0.795  1.00  0.00     0.011 C 
HETATM    4  C4  GRA     1      -7.786  -2.719   0.444  1.00  0.00     0.021 C 
HETATM    5  C5  GRA     1      -6.845  -2.543   1.650  1.00  0.00     0.042 C 
HETATM    6  C6  GRA     1      -6.593  -1.034   1.893  1.00  0.00     0.030 C 
HETATM    7  C7  GRA     1      -6.123  -0.206   0.662  1.00  0.00     0.025 C 
HETATM    8  C8  GRA     1      -4.608  -0.229   0.354  1.00  0.00    -0.062 C 
HETATM    9  C9  GRA     1      -3.688  -0.499   1.303  1.00  0.00     0.054 C 
HETATM   10  C10 GRA     1      -2.222  -0.298   1.132  1.00  0.00     0.155 C 
HETATM   11  O1  GRA     1      -1.494  -0.705   2.036  1.00  0.00    -0.293 OA
HETATM   12  C11 GRA     1      -1.700   0.360  -0.155  1.00  0.00     0.077 C 
HETATM   13  C12 GRA     1      -0.257   1.023  -0.067  1.00  0.00    -0.028 C 
HETATM   14  C13 GRA     1       0.795  -0.061   0.318  1.00  0.00     0.013 C 
HETATM   15  C14 GRA     1       2.245   0.380   0.156  1.00  0.00     0.034 C 
HETATM   16  C15 GRA     1       2.571   0.866  -1.254  1.00  0.00     0.133 C 
HETATM   17  C16 GRA     1       1.607   2.001  -1.727  1.00  0.00    -0.017 C 
HETATM   18  C17 GRA     1       0.120   1.518  -1.518  1.00  0.00     0.005 C 
HETATM   19  C18 GRA     1      -0.951   2.468  -2.088  1.00  0.00     0.007 C 
HETATM   20  C19 GRA     1      -2.319   1.781  -2.171  1.00  0.00     0.011 C 
HETATM   21  C20 GRA     1      -2.840   1.225  -0.819  1.00  0.00    -0.021 C 
HETATM   22  C21 GRA     1      -4.143   0.279  -1.021  1.00  0.00    -0.012 C 
HETATM   23  C22 GRA     1      -5.307   1.044  -1.707  1.00  0.00     0.015 C 
HETATM   24  C23 GRA     1      -6.575   0.209  -1.874  1.00  0.00     0.011 C 
HETATM   25  C24 GRA     1      -3.814  -0.971  -1.895  1.00  0.00     0.021 C 
HETATM   26  C25 GRA     1      -3.226   2.461   0.053  1.00  0.00     0.017 C 
HETATM   27  C26 GRA     1       1.874   2.220  -3.243  1.00  0.00     0.018 C 
HETATM   28  C27 GRA     1       1.925   3.341  -1.035  1.00  0.00     0.018 C 
HETATM   29  C40 GRA     1      -0.219   2.130   1.011  1.00  0.00     0.016 C 
HETATM   30  C41 GRA     1      -5.539  -3.326   1.449  1.00  0.00     0.026 C 
ENDROOT
BRANCH  16  31
HETATM   31  O2  GRA     1       3.933   1.327  -1.280  1.00  0.00    -0.352 OA
BRANCH  31  32
HETATM   32  C28 GRA     1       4.890   0.256  -1.396  1.00  0.00     0.293 C 
HETATM   33  C29 GRA     1       6.092   0.520  -0.469  1.00  0.00     0.211 C 
HETATM   34  C30 GRA     1       6.711   1.883  -0.821  1.00  0.00     0.183 C 
HETATM   35  C31 GRA     1       6.623   2.205  -2.324  1.00  0.00     0.189 C 
HETATM   36  C32 GRA     1       6.383   0.954  -3.182  1.00  0.00     0.253 C 
HETATM   37  O3  GRA     1       5.260   0.164  -2.771  1.00  0.00    -0.340 OA
BRANCH  33  38
HETATM   38  O8  GRA     1       5.705   0.560   0.920  1.00  0.00    -0.346 OA
BRANCH  38  39
HETATM   39  C34 GRA     1       5.961  -0.675   1.606  1.00  0.00     0.293 C 
HETATM   40  C35 GRA     1       5.666  -0.418   3.090  1.00  0.00     0.204 C 
HETATM   41  C36 GRA     1       6.054  -1.648   3.914  1.00  0.00     0.183 C 
HETATM   42  C37 GRA     1       5.943  -2.959   3.120  1.00  0.00     0.189 C 
HETATM   43  C38 GRA     1       4.966  -2.853   1.938  1.00  0.00     0.253 C 
HETATM   44  O9  GRA     1       5.136  -1.709   1.089  1.00  0.00    -0.340 OA
BRANCH  40  45
HETATM   45  O14 GRA     1       6.380   0.724   3.592  1.00  0.00    -0.388 OA
HETATM   46  H55 GRA     1       6.277   1.407   2.898  1.00  0.00     0.210 HD
ENDBRANCH  40  45
BRANCH  41  47
HETATM   47  O13 GRA     1       5.234  -1.714   5.087  1.00  0.00    -0.390 OA
HETATM   48  H54 GRA     1       5.326  -0.845   5.527  1.00  0.00     0.210 HD
ENDBRANCH  41  47
BRANCH  42  49
HETATM   49  O12 GRA     1       7.243  -3.291   2.596  1.00  0.00    -0.390 OA
HETATM   50  H53 GRA     1       7.791  -3.580   3.349  1.00  0.00     0.210 HD
ENDBRANCH  42  49
BRANCH  43  51
HETATM   51  C39 GRA     1       3.543  -3.035   2.471  1.00  0.00     0.172 C 
HETATM   52  O10 GRA     1       3.042  -4.097   2.807  1.00  0.00    -0.648 OA
BRANCH  51  53
HETATM   53  O11 GRA     1       2.845  -1.889   2.582  1.00  0.00    -0.774 OA
HETATM   54  H52 GRA     1       1.963  -2.154   2.923  1.00  0.00     0.167 HD
ENDBRANCH  51  53
ENDBRANCH  43  51
ENDBRANCH  38  39
ENDBRANCH  33  38
BRANCH  34  55
HETATM   55  O7  GRA     1       8.089   1.873  -0.407  1.00  0.00    -0.390 OA
HETATM   56  H46 GRA     1       8.390   2.801  -0.410  1.00  0.00     0.210 HD
ENDBRANCH  34  55
BRANCH  35  57
HETATM   57  O6  GRA     1       5.558   3.147  -2.542  1.00  0.00    -0.390 OA
HETATM   58  H45 GRA     1       4.735   2.715  -2.227  1.00  0.00     0.210 HD
ENDBRANCH  35  57
BRANCH  36  59
HETATM   59  C33 GRA     1       7.656   0.112  -3.273  1.00  0.00     0.172 C 
HETATM   60  O4  GRA     1       7.790  -1.050  -2.922  1.00  0.00    -0.648 OA
BRANCH  59  61
HETATM   61  O5  GRA     1       8.695   0.770  -3.827  1.00  0.00    -0.774 OA
HETATM   62  H44 GRA     1       9.421   0.109  -3.825  1.00  0.00     0.167 HD
ENDBRANCH  59  61
ENDBRANCH  36  59
ENDBRANCH  31  32
ENDBRANCH  16  31
BRANCH   5  63
HETATM   63  C42 GRA     1      -7.513  -3.118   2.901  1.00  0.00     0.148 C 
HETATM   64  O15 GRA     1      -7.547  -2.608   4.009  1.00  0.00    -0.649 OA
BRANCH  63  65
HETATM   65  O16 GRA     1      -8.068  -4.330   2.708  1.00  0.00    -0.776 OA
HETATM   66  H62 GRA     1      -8.419  -4.572   3.591  1.00  0.00     0.167 HD
ENDBRANCH  63  65
ENDBRANCH   5  63
TORSDOF 15
