REMARK  14 active torsions:
REMARK  status: ('A' for Active; 'I' for Inactive)
REMARK    1  A    between atoms: C3_3  and  O14_41 
REMARK    2  A    between atoms: C4_4  and  O13_40 
REMARK    3  A    between atoms: C5_5  and  O12_39 
REMARK    4  A    between atoms: C6_6  and  O2_8 
REMARK    5  A    between atoms: O2_8  and  C7_9 
REMARK    6  A    between atoms: C8_10  and  O11_38 
REMARK    7  A    between atoms: C9_11  and  O10_37 
REMARK    8  A    between atoms: C10_12  and  C27_35 
REMARK    9  A    between atoms: C11_14  and  O4_15 
REMARK   10  A    between atoms: O4_15  and  C12_16 
REMARK   11  A    between atoms: C14_18  and  O8_34 
REMARK   12  A    between atoms: C18_23  and  C21_27 
REMARK   13  A    between atoms: C24_30  and  O7_33 
REMARK   14  A    between atoms: C27_35  and  O9_36 
ROOT
HETATM    1  C7  NAR     1      -2.599  -1.733  -0.704  1.00  0.00     0.211 C 
HETATM    2  C8  NAR     1      -3.014  -2.983  -1.501  1.00  0.00     0.183 C 
HETATM    3  C9  NAR     1      -3.097  -4.240  -0.611  1.00  0.00     0.180 C 
HETATM    4  C10 NAR     1      -2.194  -4.099   0.628  1.00  0.00     0.179 C 
HETATM    5  O3  NAR     1      -1.007  -3.392   0.279  1.00  0.00    -0.348 OA
HETATM    6  C11 NAR     1      -1.258  -1.993   0.049  1.00  0.00     0.298 C 
ENDROOT
BRANCH   6   7
HETATM    7  O4  NAR     1      -0.209  -1.465  -0.778  1.00  0.00    -0.318 OA
BRANCH   7   8
HETATM    8  C12 NAR     1       0.951  -1.088  -0.162  1.00  0.00     0.077 A 
HETATM    9  C13 NAR     1       1.385  -1.521   1.092  1.00  0.00     0.074 A 
HETATM   10  C14 NAR     1       2.604  -1.071   1.599  1.00  0.00     0.085 A 
HETATM   11  C15 NAR     1       3.395  -0.188   0.860  1.00  0.00     0.076 A 
HETATM   12  C16 NAR     1       4.712   0.265   1.343  1.00  0.00     0.167 C 
HETATM   13  C19 NAR     1       2.959   0.252  -0.389  1.00  0.00     0.089 A 
HETATM   14  O5  NAR     1       5.118  -0.099   2.445  1.00  0.00    -0.292 OA
HETATM   15  C17 NAR     1       5.526   1.110   0.407  1.00  0.00     0.121 C 
HETATM   16  C18 NAR     1       4.568   1.952  -0.425  1.00  0.00     0.169 C 
HETATM   17  O6  NAR     1       3.671   1.117  -1.177  1.00  0.00    -0.340 OA
HETATM   18  C20 NAR     1       1.752  -0.215  -0.906  1.00  0.00     0.074 A 
BRANCH  10  19
HETATM   19  O8  NAR     1       2.972  -1.548   2.829  1.00  0.00    -0.360 OA
HETATM   20  H24 NAR     1       3.852  -1.169   3.056  1.00  0.00     0.217 HD
ENDBRANCH  10  19
BRANCH  16  21
HETATM   21  C21 NAR     1       5.339   2.839  -1.386  1.00  0.00    -0.028 A 
HETATM   22  C22 NAR     1       5.809   2.349  -2.617  1.00  0.00     0.012 A 
HETATM   23  C23 NAR     1       6.538   3.170  -3.481  1.00  0.00     0.037 A 
HETATM   24  C24 NAR     1       6.803   4.485  -3.114  1.00  0.00     0.065 A 
HETATM   25  C25 NAR     1       6.354   4.988  -1.900  1.00  0.00     0.037 A 
HETATM   26  C26 NAR     1       5.625   4.168  -1.036  1.00  0.00     0.012 A 
BRANCH  24  27
HETATM   27  O7  NAR     1       7.510   5.321  -3.925  1.00  0.00    -0.361 OA
HETATM   28  H23 NAR     1       7.743   4.841  -4.737  1.00  0.00     0.217 HD
ENDBRANCH  24  27
ENDBRANCH  16  21
ENDBRANCH   7   8
ENDBRANCH   6   7
BRANCH   1  29
HETATM   29  O2  NAR     1      -3.656  -1.427   0.225  1.00  0.00    -0.346 OA
BRANCH  29  30
HETATM   30  C6  NAR     1      -3.812  -0.021   0.439  1.00  0.00     0.292 C 
HETATM   31  C5  NAR     1      -4.995   0.168   1.413  1.00  0.00     0.204 C 
HETATM   32  C4  NAR     1      -4.949   1.549   2.082  1.00  0.00     0.183 C 
HETATM   33  C3  NAR     1      -4.126   2.536   1.252  1.00  0.00     0.178 C 
HETATM   34  C2  NAR     1      -2.695   1.989   1.070  1.00  0.00     0.152 C 
HETATM   35  C1  NAR     1      -2.009   2.592  -0.152  1.00  0.00     0.042 C 
HETATM   36  O1  NAR     1      -2.634   0.555   0.983  1.00  0.00    -0.351 OA
BRANCH  31  37
HETATM   37  O12 NAR     1      -6.246   0.014   0.713  1.00  0.00    -0.388 OA
HETATM   38  H30 NAR     1      -6.238  -0.897   0.355  1.00  0.00     0.210 HD
ENDBRANCH  31  37
BRANCH  32  39
HETATM   39  O13 NAR     1      -6.270   2.082   2.270  1.00  0.00    -0.390 OA
HETATM   40  H31 NAR     1      -6.853   1.523   1.710  1.00  0.00     0.210 HD
ENDBRANCH  32  39
BRANCH  33  41
HETATM   41  O14 NAR     1      -4.096   3.813   1.894  1.00  0.00    -0.390 OA
HETATM   42  H32 NAR     1      -5.006   3.950   2.232  1.00  0.00     0.210 HD
ENDBRANCH  33  41
ENDBRANCH  29  30
ENDBRANCH   1  29
BRANCH   2  43
HETATM   43  O11 NAR     1      -2.095  -3.201  -2.585  1.00  0.00    -0.390 OA
HETATM   44  H29 NAR     1      -1.206  -3.340  -2.205  1.00  0.00     0.210 HD
ENDBRANCH   2  43
BRANCH   4  45
HETATM   45  C27 NAR     1      -1.820  -5.477   1.187  1.00  0.00     0.198 C 
BRANCH  45  46
HETATM   46  O9  NAR     1      -2.994  -6.219   1.508  1.00  0.00    -0.398 OA
HETATM   47  H27 NAR     1      -2.692  -7.050   1.921  1.00  0.00     0.209 HD
ENDBRANCH  45  46
ENDBRANCH   4  45
BRANCH   3  48
HETATM   48  O10 NAR     1      -4.447  -4.485  -0.199  1.00  0.00    -0.390 OA
HETATM   49  H28 NAR     1      -4.403  -5.249   0.414  1.00  0.00     0.210 HD
ENDBRANCH   3  48
TORSDOF 14
