REMARK  5 active torsions:
REMARK  status: ('A' for Active; 'I' for Inactive)
REMARK    1  A    between atoms: C3_3  and  O3_17 
REMARK    2  A    between atoms: C6_6  and  C7_7 
REMARK    3  A    between atoms: C8_8  and  C9_9 
REMARK    4  A    between atoms: C11_11  and  O2_16 
REMARK    5  A    between atoms: C13_13  and  O1_15 
ROOT
HETATM    1  C9  RES     1       1.786  -0.143   0.292  1.00  0.00    -0.031 A 
HETATM    2  C10 RES     1       2.596  -1.169   0.797  1.00  0.00     0.048 A 
HETATM    3  C11 RES     1       3.982  -1.090   0.680  1.00  0.00     0.069 A 
HETATM    4  C12 RES     1       4.585   0.005   0.073  1.00  0.00     0.073 A 
HETATM    5  C13 RES     1       3.782   1.030  -0.412  1.00  0.00     0.069 A 
HETATM    6  C14 RES     1       2.393   0.970  -0.305  1.00  0.00     0.048 A 
ENDROOT
BRANCH   1   7
HETATM    7  C8  RES     1       0.329  -0.245   0.460  1.00  0.00     0.012 C 
HETATM    8  C7  RES     1      -0.558   0.133  -0.475  1.00  0.00     0.012 C 
BRANCH   8   9
HETATM    9  C6  RES     1      -2.015   0.029  -0.309  1.00  0.00    -0.036 A 
HETATM   10  C1  RES     1      -2.620  -1.075   0.310  1.00  0.00     0.014 A 
HETATM   11  C2  RES     1      -4.011  -1.154   0.424  1.00  0.00     0.037 A 
HETATM   12  C3  RES     1      -4.800  -0.132  -0.092  1.00  0.00     0.065 A 
HETATM   13  C4  RES     1      -4.220   0.962  -0.722  1.00  0.00     0.037 A 
HETATM   14  C5  RES     1      -2.830   1.040  -0.836  1.00  0.00     0.014 A 
BRANCH  12  15
HETATM   15  O3  RES     1      -6.159  -0.168  -0.004  1.00  0.00    -0.361 OA
HETATM   16  H12 RES     1      -6.418  -0.983   0.458  1.00  0.00     0.217 HD
ENDBRANCH  12  15
ENDBRANCH   8   9
ENDBRANCH   1   7
BRANCH   3  17
HETATM   17  O2  RES     1       4.721  -2.121   1.181  1.00  0.00    -0.361 OA
HETATM   18  H11 RES     1       5.661  -1.929   1.025  1.00  0.00     0.217 HD
ENDBRANCH   3  17
BRANCH   5  19
HETATM   19  O1  RES     1       4.404   2.099  -0.991  1.00  0.00    -0.361 OA
HETATM   20  H10 RES     1       3.728   2.738  -1.271  1.00  0.00     0.217 HD
ENDBRANCH   5  19
TORSDOF 5
