REMARK  5 active torsions:
REMARK  status: ('A' for Active; 'I' for Inactive)
REMARK    1  A    between atoms: O1_2  and  C2_3 
REMARK    2  A    between atoms: C4_5  and  O6_22 
REMARK    3  A    between atoms: C8_10  and  C11_15 
REMARK    4  A    between atoms: C9_11  and  O4_14 
REMARK    5  A    between atoms: C14_18  and  O5_21 
ROOT
HETATM    1  C2  RHA     1      -3.416   0.817  -0.502  1.00  0.00     0.073 A 
HETATM    2  C3  RHA     1      -3.857  -0.298   0.214  1.00  0.00     0.074 A 
HETATM    3  C4  RHA     1      -2.929  -1.184   0.763  1.00  0.00     0.085 A 
HETATM    4  C5  RHA     1      -1.560  -0.961   0.601  1.00  0.00     0.084 A 
HETATM    5  C6  RHA     1      -1.117   0.148  -0.109  1.00  0.00     0.096 A 
HETATM    6  C7  RHA     1      -2.042   1.035  -0.659  1.00  0.00     0.075 A 
HETATM    7  O2  RHA     1       0.211   0.429  -0.304  1.00  0.00    -0.306 OA
HETATM    8  C8  RHA     1       1.165  -0.438   0.217  1.00  0.00     0.123 A 
HETATM    9  C9  RHA     1       0.868  -1.541   0.929  1.00  0.00     0.152 A 
HETATM   10  C10 RHA     1      -0.558  -1.867   1.164  1.00  0.00     0.223 A 
HETATM   11  O3  RHA     1      -0.873  -2.863   1.811  1.00  0.00    -0.284 OA
ENDROOT
BRANCH   8  12
HETATM   12  C11 RHA     1       2.550  -0.007  -0.071  1.00  0.00     0.001 A 
HETATM   13  C12 RHA     1       2.915   1.338   0.110  1.00  0.00     0.017 A 
HETATM   14  C13 RHA     1       4.211   1.776  -0.180  1.00  0.00     0.037 A 
HETATM   15  C14 RHA     1       5.147   0.868  -0.660  1.00  0.00     0.065 A 
HETATM   16  C15 RHA     1       4.808  -0.464  -0.856  1.00  0.00     0.037 A 
HETATM   17  C16 RHA     1       3.513  -0.900  -0.566  1.00  0.00     0.017 A 
BRANCH  15  18
HETATM   18  O5  RHA     1       6.421   1.251  -0.957  1.00  0.00    -0.361 OA
HETATM   19  H11 RHA     1       6.514   2.198  -0.763  1.00  0.00     0.217 HD
ENDBRANCH  15  18
ENDBRANCH   8  12
BRANCH   9  20
HETATM   20  O4  RHA     1       1.807  -2.394   1.477  1.00  0.00    -0.355 OA
HETATM   21  H6  RHA     1       1.292  -3.081   1.950  1.00  0.00     0.218 HD
ENDBRANCH   9  20
BRANCH   3  22
HETATM   22  O6  RHA     1      -3.434  -2.254   1.452  1.00  0.00    -0.360 OA
HETATM   23  H12 RHA     1      -2.682  -2.793   1.786  1.00  0.00     0.217 HD
ENDBRANCH   3  22
BRANCH   1  24
HETATM   24  O1  RHA     1      -4.212   1.761  -1.089  1.00  0.00    -0.356 OA
HETATM   25  C1  RHA     1      -5.619   1.582  -0.967  1.00  0.00     0.210 C 
ENDBRANCH   1  24
TORSDOF 5
