REMARK  16 active torsions:
REMARK  status: ('A' for Active; 'I' for Inactive)
REMARK    1  A    between atoms: C3_3  and  O16_43 
REMARK    2  A    between atoms: C4_4  and  O15_42 
REMARK    3  A    between atoms: C5_5  and  O14_41 
REMARK    4  A    between atoms: C6_6  and  O2_8 
REMARK    5  A    between atoms: O2_8  and  C7_9 
REMARK    6  A    between atoms: C7_9  and  C8_10 
REMARK    7  A    between atoms: C9_11  and  O13_40 
REMARK    8  A    between atoms: C10_12  and  O12_39 
REMARK    9  A    between atoms: C11_13  and  O11_38 
REMARK   10  A    between atoms: C12_14  and  O4_16 
REMARK   11  A    between atoms: O4_16  and  C13_17 
REMARK   12  A    between atoms: C14_18  and  C22_30 
REMARK   13  A    between atoms: C17_22  and  O8_29 
REMARK   14  A    between atoms: C19_24  and  O7_28 
REMARK   15  A    between atoms: C24_32  and  O10_37 
REMARK   16  A    between atoms: C25_33  and  O9_36 
ROOT
HETATM    1  C8  RUT     1       0.824   1.863   0.243  1.00  0.00     0.180 C 
HETATM    2  C9  RUT     1       1.589   1.119   1.349  1.00  0.00     0.180 C 
HETATM    3  C10 RUT     1       1.345   1.818   2.691  1.00  0.00     0.183 C 
HETATM    4  C11 RUT     1      -0.102   2.295   2.870  1.00  0.00     0.205 C 
HETATM    5  C12 RUT     1      -1.044   1.713   1.795  1.00  0.00     0.298 C 
HETATM    6  O3  RUT     1      -0.592   1.909   0.448  1.00  0.00    -0.348 OA
ENDROOT
BRANCH   5   7
HETATM    7  O4  RUT     1      -1.235   0.313   2.036  1.00  0.00    -0.311 OA
BRANCH   7   8
HETATM    8  C13 RUT     1      -2.561  -0.071   1.937  1.00  0.00     0.157 A 
HETATM    9  C14 RUT     1      -2.990  -0.971   1.032  1.00  0.00     0.124 A 
HETATM   10  O5  RUT     1      -4.302  -1.388   0.891  1.00  0.00    -0.306 OA
HETATM   11  C15 RUT     1      -5.239  -0.916   1.773  1.00  0.00     0.096 A 
HETATM   12  C16 RUT     1      -6.543  -1.386   1.623  1.00  0.00     0.075 A 
HETATM   13  C20 RUT     1      -4.937  -0.007   2.783  1.00  0.00     0.084 A 
HETATM   14  C17 RUT     1      -7.537  -0.941   2.490  1.00  0.00     0.071 A 
HETATM   15  C18 RUT     1      -7.250  -0.033   3.505  1.00  0.00     0.074 A 
HETATM   16  C19 RUT     1      -5.945   0.433   3.649  1.00  0.00     0.085 A 
HETATM   17  C21 RUT     1      -3.555   0.472   2.901  1.00  0.00     0.223 A 
HETATM   18  O6  RUT     1      -3.256   1.298   3.761  1.00  0.00    -0.284 OA
BRANCH   9  19
HETATM   19  C22 RUT     1      -2.083  -1.589   0.050  1.00  0.00     0.004 A 
HETATM   20  C23 RUT     1      -2.301  -1.387  -1.322  1.00  0.00     0.053 A 
HETATM   21  C24 RUT     1      -1.455  -1.991  -2.246  1.00  0.00     0.099 A 
HETATM   22  C25 RUT     1      -0.404  -2.798  -1.818  1.00  0.00     0.098 A 
HETATM   23  C26 RUT     1      -0.176  -3.009  -0.467  1.00  0.00     0.040 A 
HETATM   24  C27 RUT     1      -1.016  -2.402   0.469  1.00  0.00     0.017 A 
BRANCH  21  25
HETATM   25  O10 RUT     1      -1.617  -1.821  -3.594  1.00  0.00    -0.358 OA
HETATM   26  H24 RUT     1      -2.401  -1.266  -3.741  1.00  0.00     0.217 HD
ENDBRANCH  21  25
BRANCH  22  27
HETATM   27  O9  RUT     1       0.415  -3.395  -2.731  1.00  0.00    -0.358 OA
HETATM   28  H23 RUT     1       0.110  -3.056  -3.596  1.00  0.00     0.217 HD
ENDBRANCH  22  27
ENDBRANCH   9  19
BRANCH  14  29
HETATM   29  O8  RUT     1      -8.798  -1.426   2.308  1.00  0.00    -0.361 OA
HETATM   30  H19 RUT     1      -9.383  -1.048   2.987  1.00  0.00     0.217 HD
ENDBRANCH  14  29
BRANCH  16  31
HETATM   31  O7  RUT     1      -5.722   1.325   4.664  1.00  0.00    -0.360 OA
HETATM   32  H18 RUT     1      -4.767   1.560   4.666  1.00  0.00     0.217 HD
ENDBRANCH  16  31
ENDBRANCH   7   8
ENDBRANCH   5   7
BRANCH   4  33
HETATM   33  O11 RUT     1      -0.117   3.735   2.795  1.00  0.00    -0.388 OA
HETATM   34  H25 RUT     1      -0.959   4.029   3.187  1.00  0.00     0.210 HD
ENDBRANCH   4  33
BRANCH   3  35
HETATM   35  O12 RUT     1       1.718   0.917   3.748  1.00  0.00    -0.390 OA
HETATM   36  H26 RUT     1       2.632   0.644   3.536  1.00  0.00     0.210 HD
ENDBRANCH   3  35
BRANCH   1  37
HETATM   37  C7  RUT     1       1.073   1.238  -1.140  1.00  0.00     0.205 C 
BRANCH  37  38
HETATM   38  O2  RUT     1       2.453   1.371  -1.502  1.00  0.00    -0.356 OA
BRANCH  38  39
HETATM   39  C6  RUT     1       2.707   0.815  -2.799  1.00  0.00     0.291 C 
HETATM   40  C5  RUT     1       3.989   1.440  -3.386  1.00  0.00     0.204 C 
HETATM   41  C4  RUT     1       5.225   0.910  -2.663  1.00  0.00     0.183 C 
HETATM   42  C3  RUT     1       5.224  -0.621  -2.627  1.00  0.00     0.178 C 
HETATM   43  C2  RUT     1       3.908  -1.109  -2.003  1.00  0.00     0.152 C 
HETATM   44  C1  RUT     1       3.818  -2.631  -2.003  1.00  0.00     0.042 C 
HETATM   45  O1  RUT     1       2.780  -0.612  -2.729  1.00  0.00    -0.351 OA
BRANCH  40  46
HETATM   46  O14 RUT     1       4.111   1.146  -4.789  1.00  0.00    -0.388 OA
HETATM   47  H28 RUT     1       5.034   1.387  -5.011  1.00  0.00     0.210 HD
ENDBRANCH  40  46
BRANCH  41  48
HETATM   48  O15 RUT     1       6.404   1.366  -3.352  1.00  0.00    -0.390 OA
HETATM   49  H29 RUT     1       7.142   0.892  -2.916  1.00  0.00     0.210 HD
ENDBRANCH  41  48
BRANCH  42  50
HETATM   50  O16 RUT     1       6.375  -1.037  -1.881  1.00  0.00    -0.390 OA
HETATM   51  H30 RUT     1       6.471  -1.998  -2.007  1.00  0.00     0.210 HD
ENDBRANCH  42  50
ENDBRANCH  38  39
ENDBRANCH  37  38
ENDBRANCH   1  37
BRANCH   2  52
HETATM   52  O13 RUT     1       3.010   1.080   1.145  1.00  0.00    -0.390 OA
HETATM   53  H27 RUT     1       3.161   1.110   0.178  1.00  0.00     0.210 HD
ENDBRANCH   2  52
TORSDOF 16
