REMARK  9 active torsions:
REMARK  status: ('A' for Active; 'I' for Inactive)
REMARK    1  A    between atoms: O1_2  and  C2_3 
REMARK    2  A    between atoms: C3_4  and  O10_35 
REMARK    3  A    between atoms: C6_7  and  C8_9 
REMARK    4  A    between atoms: C9_10  and  C25_33 
REMARK    5  A    between atoms: C13_16  and  C16_19 
REMARK    6  A    between atoms: C17_20  and  O8_32 
REMARK    7  A    between atoms: C20_24  and  O7_31 
REMARK    8  A    between atoms: C22_26  and  O6_30 
REMARK    9  A    between atoms: C25_33  and  O9_34 
ROOT
HETATM    1  C8  SIL     1       2.553  -1.007  -0.470  1.00  0.00     0.193 C 
HETATM    2  C9  SIL     1       2.560  -1.664  -1.862  1.00  0.00     0.186 C 
HETATM    3  O2  SIL     1       1.415  -2.538  -2.003  1.00  0.00    -0.338 OA
HETATM    4  C10 SIL     1       0.263  -1.944  -1.561  1.00  0.00     0.102 A 
HETATM    5  C11 SIL     1       0.248  -0.804  -0.758  1.00  0.00     0.103 A 
HETATM    6  O3  SIL     1       1.384  -0.179  -0.319  1.00  0.00    -0.336 OA
HETATM    7  C12 SIL     1      -0.966  -0.235  -0.371  1.00  0.00     0.049 A 
HETATM    8  C13 SIL     1      -2.184  -0.822  -0.753  1.00  0.00    -0.023 A 
HETATM    9  C14 SIL     1      -2.152  -1.981  -1.547  1.00  0.00     0.013 A 
HETATM   10  C15 SIL     1      -0.935  -2.541  -1.944  1.00  0.00     0.040 A 
ENDROOT
BRANCH   8  11
HETATM   11  C16 SIL     1      -3.521  -0.213  -0.353  1.00  0.00     0.198 C 
HETATM   12  C17 SIL     1      -3.942   0.892  -1.329  1.00  0.00     0.227 C 
HETATM   13  C18 SIL     1      -5.226   1.521  -0.823  1.00  0.00     0.196 C 
HETATM   14  O4  SIL     1      -6.062   2.020  -1.578  1.00  0.00    -0.289 OA
HETATM   15  C19 SIL     1      -5.434   1.556   0.632  1.00  0.00     0.079 A 
HETATM   16  C20 SIL     1      -6.536   2.209   1.198  1.00  0.00     0.085 A 
HETATM   17  C24 SIL     1      -4.489   0.945   1.456  1.00  0.00     0.089 A 
HETATM   18  C21 SIL     1      -6.687   2.267   2.581  1.00  0.00     0.074 A 
HETATM   19  C22 SIL     1      -5.725   1.675   3.393  1.00  0.00     0.071 A 
HETATM   20  C23 SIL     1      -4.627   1.019   2.842  1.00  0.00     0.074 A 
HETATM   21  O5  SIL     1      -3.386   0.287   0.990  1.00  0.00    -0.337 OA
BRANCH  12  22
HETATM   22  O8  SIL     1      -4.192   0.374  -2.639  1.00  0.00    -0.385 OA
HETATM   23  H18 SIL     1      -4.700   1.062  -3.114  1.00  0.00     0.210 HD
ENDBRANCH  12  22
BRANCH  16  24
HETATM   24  O7  SIL     1      -7.506   2.822   0.450  1.00  0.00    -0.360 OA
HETATM   25  H17 SIL     1      -7.287   2.704  -0.501  1.00  0.00     0.217 HD
ENDBRANCH  16  24
BRANCH  19  26
HETATM   26  O6  SIL     1      -5.823   1.713   4.752  1.00  0.00    -0.361 OA
HETATM   27  H16 SIL     1      -6.629   2.199   4.997  1.00  0.00     0.217 HD
ENDBRANCH  19  26
ENDBRANCH   8  11
BRANCH   1  28
HETATM   28  C6  SIL     1       3.756  -0.119  -0.210  1.00  0.00    -0.024 A 
HETATM   29  C5  SIL     1       3.964   1.051  -0.956  1.00  0.00     0.013 A 
HETATM   30  C4  SIL     1       5.083   1.850  -0.724  1.00  0.00     0.040 A 
HETATM   31  C3  SIL     1       5.999   1.485   0.261  1.00  0.00     0.099 A 
HETATM   32  C2  SIL     1       5.813   0.328   1.029  1.00  0.00     0.101 A 
HETATM   33  C7  SIL     1       4.688  -0.468   0.786  1.00  0.00     0.049 A 
BRANCH  31  34
HETATM   34  O10 SIL     1       7.099   2.269   0.489  1.00  0.00    -0.358 OA
HETATM   35  H22 SIL     1       7.078   3.028  -0.114  1.00  0.00     0.217 HD
ENDBRANCH  31  34
BRANCH  32  36
HETATM   36  O1  SIL     1       6.774   0.066   1.970  1.00  0.00    -0.353 OA
HETATM   37  C1  SIL     1       6.583  -1.063   2.809  1.00  0.00     0.210 C 
ENDBRANCH  32  36
ENDBRANCH   1  28
BRANCH   2  38
HETATM   38  C25 SIL     1       3.794  -2.543  -2.092  1.00  0.00     0.199 C 
BRANCH  38  39
HETATM   39  O9  SIL     1       3.747  -3.125  -3.398  1.00  0.00    -0.398 OA
HETATM   40  H21 SIL     1       2.856  -3.513  -3.491  1.00  0.00     0.209 HD
ENDBRANCH  38  39
ENDBRANCH   2  38
TORSDOF 9
