REMARK  10 active torsions:
REMARK  status: ('A' for Active; 'I' for Inactive)
REMARK    1  A    between atoms: C3_3  and  O10_31 
REMARK    2  A    between atoms: C6_6  and  C7_7 
REMARK    3  A    between atoms: C12_14  and  C16_20 
REMARK    4  A    between atoms: C13_15  and  O4_19 
REMARK    5  A    between atoms: C15_17  and  O3_18 
REMARK    6  A    between atoms: C17_21  and  O9_30 
REMARK    7  A    between atoms: C18_22  and  O8_29 
REMARK    8  A    between atoms: C19_23  and  O7_28 
REMARK    9  A    between atoms: C20_24  and  C21_26 
REMARK   10  A    between atoms: C21_26  and  O6_27 
ROOT
HETATM    1  C7  VIT     1       2.241   0.850  -0.303  1.00  0.00     0.090 A 
HETATM    2  C8  VIT     1       3.034   1.903  -0.064  1.00  0.00     0.094 A 
HETATM    3  C9  VIT     1       2.432   3.139   0.446  1.00  0.00     0.190 A 
HETATM    4  O1  VIT     1       3.112   4.134   0.674  1.00  0.00    -0.287 OA
HETATM    5  C10 VIT     1       0.980   3.141   0.665  1.00  0.00     0.082 A 
HETATM    6  C11 VIT     1       0.259   1.974   0.399  1.00  0.00     0.104 A 
HETATM    7  O2  VIT     1       0.876   0.838  -0.074  1.00  0.00    -0.308 OA
HETATM    8  C12 VIT     1      -1.137   1.930   0.602  1.00  0.00     0.041 A 
HETATM    9  C13 VIT     1      -1.769   3.101   1.058  1.00  0.00     0.080 A 
HETATM   10  C14 VIT     1      -1.051   4.269   1.320  1.00  0.00     0.074 A 
HETATM   11  C15 VIT     1       0.324   4.285   1.127  1.00  0.00     0.085 A 
ENDROOT
BRANCH   8  12
HETATM   12  C16 VIT     1      -1.947   0.669   0.340  1.00  0.00     0.192 C 
HETATM   13  C17 VIT     1      -1.998   0.283  -1.165  1.00  0.00     0.183 C 
HETATM   14  C18 VIT     1      -2.131  -1.247  -1.354  1.00  0.00     0.181 C 
HETATM   15  C19 VIT     1      -2.939  -1.849  -0.197  1.00  0.00     0.180 C 
HETATM   16  C20 VIT     1      -2.262  -1.547   1.166  1.00  0.00     0.177 C 
HETATM   17  O5  VIT     1      -1.396  -0.398   1.125  1.00  0.00    -0.368 OA
BRANCH  13  18
HETATM   18  O9  VIT     1      -3.117   0.934  -1.795  1.00  0.00    -0.390 OA
HETATM   19  H19 VIT     1      -3.920   0.543  -1.391  1.00  0.00     0.210 HD
ENDBRANCH  13  18
BRANCH  14  20
HETATM   20  O8  VIT     1      -0.861  -1.895  -1.442  1.00  0.00    -0.390 OA
HETATM   21  H18 VIT     1      -0.358  -1.466  -2.158  1.00  0.00     0.210 HD
ENDBRANCH  14  20
BRANCH  15  22
HETATM   22  O7  VIT     1      -4.255  -1.256  -0.229  1.00  0.00    -0.390 OA
HETATM   23  H17 VIT     1      -4.794  -1.759   0.410  1.00  0.00     0.210 HD
ENDBRANCH  15  22
BRANCH  16  24
HETATM   24  C21 VIT     1      -1.429  -2.734   1.660  1.00  0.00     0.198 C 
BRANCH  24  25
HETATM   25  O6  VIT     1      -2.267  -3.857   1.923  1.00  0.00    -0.398 OA
HETATM   26  H16 VIT     1      -1.681  -4.575   2.222  1.00  0.00     0.209 HD
ENDBRANCH  24  25
ENDBRANCH  16  24
ENDBRANCH   8  12
BRANCH   9  27
HETATM   27  O4  VIT     1      -3.123   3.097   1.252  1.00  0.00    -0.360 OA
HETATM   28  H8  VIT     1      -3.410   3.987   1.519  1.00  0.00     0.217 HD
ENDBRANCH   9  27
BRANCH  11  29
HETATM   29  O3  VIT     1       0.970   5.459   1.405  1.00  0.00    -0.360 OA
HETATM   30  H7  VIT     1       1.930   5.330   1.231  1.00  0.00     0.217 HD
ENDBRANCH  11  29
BRANCH   1  31
HETATM   31  C6  VIT     1       2.776  -0.425  -0.822  1.00  0.00    -0.002 A 
HETATM   32  C1  VIT     1       3.766  -0.462  -1.818  1.00  0.00     0.017 A 
HETATM   33  C2  VIT     1       4.246  -1.681  -2.309  1.00  0.00     0.037 A 
HETATM   34  C3  VIT     1       3.729  -2.871  -1.809  1.00  0.00     0.065 A 
HETATM   35  C4  VIT     1       2.743  -2.860  -0.833  1.00  0.00     0.037 A 
HETATM   36  C5  VIT     1       2.267  -1.641  -0.342  1.00  0.00     0.017 A 
BRANCH  34  37
HETATM   37  O10 VIT     1       4.165  -4.081  -2.260  1.00  0.00    -0.361 OA
HETATM   38  H20 VIT     1       4.850  -3.936  -2.932  1.00  0.00     0.217 HD
ENDBRANCH  34  37
ENDBRANCH   1  31
TORSDOF 10
