MODEL 1
REMARK VINA RESULT:    -6.855      0.000      0.000
REMARK INTER + INTRA:         -10.432
REMARK INTER:                  -9.660
REMARK INTRA:                  -0.772
REMARK UNBOUND:                -0.772
REMARK  9 active torsions:
REMARK  status: ('A' for Active; 'I' for Inactive)
REMARK    1  A    between atoms: C3_3  and  C15_20 
REMARK    2  A    between atoms: C5_7  and  N2_10 
REMARK    3  A    between atoms: C6_8  and  O1_9 
REMARK    4  A    between atoms: N2_10  and  C7_11 
REMARK    5  A    between atoms: C7_11  and  O2_12 
REMARK    6  A    between atoms: C7_11  and  C8_13 
REMARK    7  A    between atoms: C8_13  and  C9_14 
REMARK    8  A    between atoms: C15_20  and  O3_21 
REMARK    9  A    between atoms: C15_20  and  O4_22 
ROOT
HETATM    1  C1  PEN     1       9.650   4.964   8.223  1.00  0.00     0.029 C 
HETATM    2  C2  PEN     1      11.136   4.541   8.274  1.00  0.00     0.039 C 
HETATM    3  C3  PEN     1      11.414   3.002   8.474  1.00  0.00     0.299 C 
HETATM    4  N1  PEN     1      12.356   2.761   9.589  1.00  0.00     0.146 N 
HETATM    5  C4  PEN     1      12.643   3.963  10.372  1.00  0.00     0.326 A 
HETATM    6  S1  PEN     1      11.885   5.452   9.656  1.00  0.00    -0.119 SA
HETATM    7  C5  PEN     1      14.158   3.831  10.176  1.00  0.00     0.325 A 
HETATM    8  C6  PEN     1      13.799   2.635   9.288  1.00  0.00     0.395 A 
HETATM    9  C16 PEN     1      11.792   5.033   6.968  1.00  0.00     0.029 C 
ENDROOT
BRANCH   7  10
HETATM   10  N2  PEN     1      14.805   4.981   9.508  1.00  0.00     0.124 N 
HETATM   11  H7  PEN     1      14.862   4.833   8.477  1.00  0.00     0.320 HD
BRANCH  10  12
HETATM   12  C7  PEN     1      16.153   5.232  10.050  1.00  0.00     0.354 C 
BRANCH  12  13
HETATM   13  O2  PEN     1      16.431   4.308  11.072  1.00  0.00    -0.368 OA
HETATM   14  H4  PEN     1      15.555   3.975  11.403  1.00  0.00     0.212 HD
ENDBRANCH  12  13
BRANCH  12  15
HETATM   15  C8  PEN     1      17.193   5.058   8.929  1.00  0.00     0.068 C 
BRANCH  15  16
HETATM   16  C9  PEN     1      17.038   6.089   7.786  1.00  0.00    -0.010 C 
HETATM   17  C10 PEN     1      17.960   7.299   8.028  1.00  0.00     0.005 C 
HETATM   18  C11 PEN     1      17.738   8.407   6.978  1.00  0.00     0.000 C 
HETATM   19  C12 PEN     1      17.281   7.872   5.606  1.00  0.00     0.000 C 
HETATM   20  C13 PEN     1      17.821   6.464   5.344  1.00  0.00     0.000 C 
HETATM   21  C14 PEN     1      17.316   5.455   6.394  1.00  0.00     0.005 C 
ENDBRANCH  15  16
ENDBRANCH  12  15
ENDBRANCH  10  12
ENDBRANCH   7  10
BRANCH   8  22
HETATM   22  O1  PEN     1      14.113   2.818   7.930  1.00  0.00    -0.366 OA
HETATM   23  H2  PEN     1      13.256   3.016   7.472  1.00  0.00     0.212 HD
ENDBRANCH   8  22
BRANCH   3  24
HETATM   24  C15 PEN     1      10.190   2.091   8.733  1.00  0.00     0.289 C 
BRANCH  24  25
HETATM   25  O3  PEN     1       9.845   1.378   7.574  1.00  0.00    -0.369 OA
HETATM   26  H12 PEN     1      10.693   1.055   7.173  1.00  0.00     0.212 HD
ENDBRANCH  24  25
BRANCH  24  27
HETATM   27  O4  PEN     1      10.437   1.213   9.799  1.00  0.00    -0.369 OA
HETATM   28  H15 PEN     1      11.418   1.069   9.831  1.00  0.00     0.212 HD
ENDBRANCH  24  27
ENDBRANCH   3  24
TORSDOF 9
ENDMDL
