MODEL 1
REMARK VINA RESULT:    -7.686      0.000      0.000
REMARK INTER + INTRA:         -17.165
REMARK INTER:                 -13.528
REMARK INTRA:                  -3.636
REMARK UNBOUND:                -3.636
REMARK  17 active torsions:
REMARK  status: ('A' for Active; 'I' for Inactive)
REMARK    1  A    between atoms: C3_3  and  C21_38 
REMARK    2  A    between atoms: C3_3  and  O12_40 
REMARK    3  A    between atoms: C4_4  and  O6_25 
REMARK    4  A    between atoms: C5_5  and  O2_7 
REMARK    5  A    between atoms: O2_7  and  C6_8 
REMARK    6  A    between atoms: C7_9  and  N4_21 
REMARK    7  A    between atoms: C8_10  and  O5_20 
REMARK    8  A    between atoms: C9_11  and  N1_16 
REMARK    9  A    between atoms: C10_12  and  O4_15 
REMARK   10  A    between atoms: C11_13  and  O3_14 
REMARK       I    between atoms: N1_16  and  C12_17 
REMARK       I    between atoms: C12_17  and  N2_18 
REMARK       I    between atoms: C12_17  and  N3_19 
REMARK       I    between atoms: N4_21  and  C13_22 
REMARK       I    between atoms: C13_22  and  N5_23 
REMARK       I    between atoms: C13_22  and  N6_24 
REMARK   11  A    between atoms: O6_25  and  C14_26 
REMARK   12  A    between atoms: C15_27  and  N7_36 
REMARK   13  A    between atoms: C16_28  and  O10_35 
REMARK   14  A    between atoms: C17_29  and  O9_34 
REMARK   15  A    between atoms: C18_30  and  C19_32 
REMARK   16  A    between atoms: C19_32  and  O8_33 
REMARK   17  A    between atoms: C21_38  and  O11_39 
ROOT
HETATM    1  C6  STM     1     -43.165  -5.230  34.335  1.00  0.00     0.192 C 
HETATM    2  C7  STM     1     -42.006  -5.238  35.369  1.00  0.00     0.287 C 
HETATM    3  C8  STM     1     -41.542  -6.685  35.694  1.00  0.00     0.190 C 
HETATM    4  C9  STM     1     -41.151  -7.436  34.386  1.00  0.00     0.287 C 
HETATM    5  C10 STM     1     -42.289  -7.406  33.335  1.00  0.00     0.185 C 
HETATM    6  C11 STM     1     -42.720  -5.953  33.038  1.00  0.00     0.180 C 
ENDROOT
BRANCH   1   7
HETATM    7  O2  STM     1     -43.500  -3.877  34.057  1.00  0.00    -0.348 OA
BRANCH   7   8
HETATM    8  C5  STM     1     -44.846  -3.557  34.392  1.00  0.00     0.293 C 
HETATM    9  C4  STM     1     -45.195  -2.172  33.845  1.00  0.00     0.218 C 
HETATM   10  C3  STM     1     -45.794  -2.471  32.466  1.00  0.00     0.135 C 
HETATM   11  C2  STM     1     -46.037  -4.010  32.515  1.00  0.00     0.160 C 
HETATM   12  C1  STM     1     -47.474  -4.441  32.202  1.00  0.00     0.043 C 
HETATM   13  O1  STM     1     -45.704  -4.492  33.793  1.00  0.00    -0.350 OA
BRANCH   9  14
HETATM   14  O6  STM     1     -46.163  -1.554  34.686  1.00  0.00    -0.346 OA
BRANCH  14  15
HETATM   15  C14 STM     1     -45.616  -0.469  35.432  1.00  0.00     0.297 C 
HETATM   16  C15 STM     1     -46.256  -0.419  36.852  1.00  0.00     0.305 C 
HETATM   17  C16 STM     1     -45.437   0.475  37.827  1.00  0.00     0.187 C 
HETATM   18  C17 STM     1     -44.436   1.365  37.054  1.00  0.00     0.180 C 
HETATM   19  C18 STM     1     -43.560   0.505  36.081  1.00  0.00     0.179 C 
HETATM   20  O7  STM     1     -44.217  -0.647  35.542  1.00  0.00    -0.349 OA
BRANCH  16  21
HETATM   21  N7  STM     1     -46.513  -1.758  37.447  1.00  0.00     0.091 N 
HETATM   22  C20 STM     1     -45.429  -2.283  38.296  1.00  0.00     0.307 C 
HETATM   23  H34 STM     1     -46.680  -2.443  36.678  1.00  0.00     0.316 HD
ENDBRANCH  16  21
BRANCH  17  24
HETATM   24  O10 STM     1     -46.321   1.280  38.569  1.00  0.00    -0.391 OA
HETATM   25  H33 STM     1     -47.098   1.475  37.984  1.00  0.00     0.210 HD
ENDBRANCH  17  24
BRANCH  18  26
HETATM   26  O9  STM     1     -43.619   2.103  37.930  1.00  0.00    -0.390 OA
HETATM   27  H32 STM     1     -44.039   2.987  38.073  1.00  0.00     0.210 HD
ENDBRANCH  18  26
BRANCH  19  28
HETATM   28  C19 STM     1     -42.988   1.363  34.938  1.00  0.00     0.198 C 
BRANCH  28  29
HETATM   29  O8  STM     1     -41.874   2.089  35.385  1.00  0.00    -0.398 OA
HETATM   30  H31 STM     1     -41.514   1.616  36.184  1.00  0.00     0.209 HD
ENDBRANCH  28  29
ENDBRANCH  19  28
ENDBRANCH  14  15
ENDBRANCH   9  14
BRANCH  10  31
HETATM   31  C21 STM     1     -44.808  -2.091  31.327  1.00  0.00     0.207 C 
BRANCH  31  32
HETATM   32  O11 STM     1     -43.792  -3.047  31.191  1.00  0.00    -0.398 OA
HETATM   33  H6  STM     1     -43.798  -3.573  32.037  1.00  0.00     0.209 HD
ENDBRANCH  31  32
ENDBRANCH  10  31
BRANCH  10  34
HETATM   34  O12 STM     1     -46.990  -1.734  32.303  1.00  0.00    -0.382 OA
HETATM   35  H39 STM     1     -47.747  -2.299  32.591  1.00  0.00     0.210 HD
ENDBRANCH  10  34
ENDBRANCH   7   8
ENDBRANCH   1   7
BRANCH   2  36
HETATM   36  N4  STM     1     -42.315  -4.424  36.573  1.00  0.00     0.156 N 
HETATM   37  C13 STM     1     -41.400  -3.309  36.877  1.00  0.00     0.674 C 
HETATM   38  N5  STM     1     -41.554  -2.936  38.287  1.00  0.00     0.142 N 
HETATM   39  N6  STM     1     -41.689  -2.152  36.018  1.00  0.00     0.142 N 
HETATM   40  H20 STM     1     -40.779  -2.276  38.544  1.00  0.00     0.318 HD
HETATM   41  H21 STM     1     -41.423  -3.792  38.876  1.00  0.00     0.318 HD
HETATM   42  H22 STM     1     -40.775  -1.721  35.716  1.00  0.00     0.318 HD
HETATM   43  H23 STM     1     -42.214  -1.412  36.548  1.00  0.00     0.318 HD
HETATM   44  H3  STM     1     -43.294  -4.055  36.506  1.00  0.00     0.321 HD
ENDBRANCH   2  36
BRANCH   6  45
HETATM   45  O3  STM     1     -43.783  -5.974  32.122  1.00  0.00    -0.390 OA
HETATM   46  H13 STM     1     -43.663  -6.785  31.566  1.00  0.00     0.210 HD
ENDBRANCH   6  45
BRANCH   3  47
HETATM   47  O5  STM     1     -40.455  -6.663  36.588  1.00  0.00    -0.391 OA
HETATM   48  H19 STM     1     -39.727  -6.125  36.178  1.00  0.00     0.210 HD
ENDBRANCH   3  47
BRANCH   5  49
HETATM   49  O4  STM     1     -41.859  -7.998  32.135  1.00  0.00    -0.391 OA
HETATM   50  H14 STM     1     -42.259  -7.474  31.387  1.00  0.00     0.210 HD
ENDBRANCH   5  49
BRANCH   4  51
HETATM   51  N1  STM     1     -40.638  -8.814  34.591  1.00  0.00     0.156 N 
HETATM   52  C12 STM     1     -39.236  -9.141  34.246  1.00  0.00     0.674 C 
HETATM   53  N2  STM     1     -38.302  -8.141  34.763  1.00  0.00     0.142 N 
HETATM   54  N3  STM     1     -39.065  -9.293  32.802  1.00  0.00     0.142 N 
HETATM   55  H15 STM     1     -37.328  -8.418  34.486  1.00  0.00     0.318 HD
HETATM   56  H16 STM     1     -38.314  -8.191  35.810  1.00  0.00     0.318 HD
HETATM   57  H17 STM     1     -38.091  -9.618  32.619  1.00  0.00     0.318 HD
HETATM   58  H18 STM     1     -39.683 -10.073  32.482  1.00  0.00     0.318 HD
HETATM   59  H1  STM     1     -41.276  -9.497  34.122  1.00  0.00     0.321 HD
ENDBRANCH   4  51
TORSDOF 17
ENDMDL
