MODEL 1
REMARK VINA RESULT:    -7.323      0.000      0.000
REMARK INTER + INTRA:         -13.769
REMARK INTER:                 -12.032
REMARK INTRA:                  -1.738
REMARK UNBOUND:                -1.738
REMARK  16 active torsions:
REMARK  status: ('A' for Active; 'I' for Inactive)
REMARK    1  A    between atoms: C2_2  and  N5_32 
REMARK    2  A    between atoms: C3_3  and  O7_21 
REMARK    3  A    between atoms: C4_4  and  O6_20 
REMARK    4  A    between atoms: C5_5  and  O1_8 
REMARK    5  A    between atoms: C6_6  and  N1_7 
REMARK    6  A    between atoms: O1_8  and  C7_9 
REMARK    7  A    between atoms: C8_10  and  O5_19 
REMARK    8  A    between atoms: C9_11  and  N2_18 
REMARK    9  A    between atoms: C10_12  and  O4_17 
REMARK   10  A    between atoms: C11_13  and  C12_15 
REMARK   11  A    between atoms: C12_15  and  O3_16 
REMARK   12  A    between atoms: O7_21  and  C13_22 
REMARK   13  A    between atoms: C14_23  and  N4_31 
REMARK   14  A    between atoms: C16_25  and  O9_30 
REMARK   15  A    between atoms: C17_26  and  C18_28 
REMARK   16  A    between atoms: C18_28  and  N3_29 
ROOT
HETATM    1  C1  TOB     1     -41.798  -3.705  35.908  1.00  0.00     0.076 C 
HETATM    2  C2  TOB     1     -43.188  -3.347  36.486  1.00  0.00     0.251 C 
HETATM    3  C3  TOB     1     -44.325  -3.425  35.433  1.00  0.00     0.189 C 
HETATM    4  C4  TOB     1     -44.290  -4.738  34.621  1.00  0.00     0.180 C 
HETATM    5  C5  TOB     1     -42.905  -4.998  33.963  1.00  0.00     0.189 C 
HETATM    6  C6  TOB     1     -41.742  -4.943  34.979  1.00  0.00     0.251 C 
ENDROOT
BRANCH   5   7
HETATM    7  O1  TOB     1     -42.646  -4.035  32.951  1.00  0.00    -0.348 OA
BRANCH   7   8
HETATM    8  C7  TOB     1     -43.243  -4.363  31.704  1.00  0.00     0.291 C 
HETATM    9  C8  TOB     1     -42.127  -4.537  30.642  1.00  0.00     0.208 C 
HETATM   10  C9  TOB     1     -42.672  -4.368  29.194  1.00  0.00     0.282 C 
HETATM   11  C10 TOB     1     -44.196  -4.570  29.159  1.00  0.00     0.184 C 
HETATM   12  C11 TOB     1     -44.863  -3.578  30.155  1.00  0.00     0.179 C 
HETATM   13  O2  TOB     1     -44.107  -3.305  31.333  1.00  0.00    -0.349 OA
BRANCH   9  14
HETATM   14  O5  TOB     1     -41.061  -3.645  30.865  1.00  0.00    -0.388 OA
HETATM   15  H21 TOB     1     -40.219  -4.171  30.836  1.00  0.00     0.210 HD
ENDBRANCH   9  14
BRANCH  10  16
HETATM   16  N2  TOB     1     -42.010  -5.289  28.267  1.00  0.00     0.088 N 
HETATM   17  H19 TOB     1     -41.693  -6.131  28.802  1.00  0.00     0.313 HD
HETATM   18  H20 TOB     1     -42.697  -5.614  27.548  1.00  0.00     0.313 HD
ENDBRANCH  10  16
BRANCH  11  19
HETATM   19  O4  TOB     1     -44.690  -4.331  27.865  1.00  0.00    -0.391 OA
HETATM   20  H18 TOB     1     -45.239  -3.506  27.910  1.00  0.00     0.210 HD
ENDBRANCH  11  19
BRANCH  12  21
HETATM   21  C12 TOB     1     -46.301  -3.977  30.519  1.00  0.00     0.198 C 
BRANCH  21  22
HETATM   22  O3  TOB     1     -46.684  -5.161  29.872  1.00  0.00    -0.398 OA
HETATM   23  H17 TOB     1     -46.326  -5.916  30.409  1.00  0.00     0.209 HD
ENDBRANCH  21  22
ENDBRANCH  12  21
ENDBRANCH   7   8
ENDBRANCH   5   7
BRANCH   4  24
HETATM   24  O6  TOB     1     -44.675  -5.820  35.429  1.00  0.00    -0.390 OA
HETATM   25  H22 TOB     1     -44.507  -5.553  36.371  1.00  0.00     0.210 HD
ENDBRANCH   4  24
BRANCH   6  26
HETATM   26  N1  TOB     1     -41.591  -6.207  35.709  1.00  0.00     0.085 N 
HETATM   27  H8  TOB     1     -42.262  -6.227  36.512  1.00  0.00     0.313 HD
HETATM   28  H9  TOB     1     -41.793  -7.026  35.103  1.00  0.00     0.313 HD
ENDBRANCH   6  26
BRANCH   3  29
HETATM   29  O7  TOB     1     -44.230  -2.341  34.516  1.00  0.00    -0.349 OA
BRANCH  29  30
HETATM   30  C13 TOB     1     -44.355  -1.067  35.136  1.00  0.00     0.293 C 
HETATM   31  C14 TOB     1     -45.851  -0.764  35.397  1.00  0.00     0.275 C 
HETATM   32  C15 TOB     1     -46.096   0.760  35.540  1.00  0.00     0.074 C 
HETATM   33  C16 TOB     1     -44.814   1.498  35.945  1.00  0.00     0.151 C 
HETATM   34  C17 TOB     1     -43.680   1.185  34.921  1.00  0.00     0.181 C 
HETATM   35  O8  TOB     1     -43.825  -0.078  34.272  1.00  0.00    -0.349 OA
BRANCH  31  36
HETATM   36  N4  TOB     1     -46.692  -1.322  34.334  1.00  0.00     0.087 N 
HETATM   37  H34 TOB     1     -46.261  -1.093  33.408  1.00  0.00     0.313 HD
HETATM   38  H35 TOB     1     -46.722  -2.364  34.423  1.00  0.00     0.313 HD
ENDBRANCH  31  36
BRANCH  33  39
HETATM   39  O9  TOB     1     -45.055   2.882  35.981  1.00  0.00    -0.393 OA
HETATM   40  H33 TOB     1     -45.590   3.101  35.174  1.00  0.00     0.210 HD
ENDBRANCH  33  39
BRANCH  34  41
HETATM   41  C18 TOB     1     -42.267   1.291  35.538  1.00  0.00     0.301 C 
BRANCH  41  42
HETATM   42  N3  TOB     1     -42.135   2.433  36.443  1.00  0.00     0.080 N 
HETATM   43  H31 TOB     1     -41.335   3.031  36.134  1.00  0.00     0.312 HD
HETATM   44  H32 TOB     1     -43.008   3.006  36.403  1.00  0.00     0.312 HD
ENDBRANCH  41  42
ENDBRANCH  34  41
ENDBRANCH  29  30
ENDBRANCH   3  29
BRANCH   2  45
HETATM   45  N5  TOB     1     -43.519  -4.105  37.698  1.00  0.00     0.085 N 
HETATM   46  H36 TOB     1     -44.386  -4.663  37.573  1.00  0.00     0.313 HD
HETATM   47  H37 TOB     1     -42.743  -4.775  37.904  1.00  0.00     0.313 HD
ENDBRANCH   2  45
TORSDOF 16
ENDMDL
