REMARK  7 active torsions:
REMARK  status: ('A' for Active; 'I' for Inactive)
REMARK    1  A    between atoms: S_2  and  N_15 
REMARK    2  A    between atoms: O_4  and  C_23 
REMARK    3  A    between atoms: N_12  and  CA_19 
REMARK       I    between atoms: N_12  and  C_24 
REMARK    4  A    between atoms: N_13  and  CA_25 
REMARK       I    between atoms: N_13  and  C_27 
REMARK       I    between atoms: N_14  and  C_27 
REMARK    5  A    between atoms: CA_18  and  C_23 
REMARK    6  A    between atoms: C_24  and  CA_25 
REMARK    7  A    between atoms: CA_25  and  C_26 
ROOT
HETATM    1  CA  MEZ     1      -0.534   0.418   0.835  1.00  0.00     0.211 C 
ENDROOT
BRANCH   1   2
HETATM    2  N   MEZ     1      -1.922   0.095   0.599  1.00  0.00    -0.325 N 
HETATM    3  C   MEZ     1      -2.918   0.356   1.532  1.00  0.00     0.327 C 
HETATM    4  O   MEZ     1      -2.699   0.880   2.627  1.00  0.00    -0.247 OA
HETATM    5  N   MEZ     1      -4.210  -0.041   1.115  1.00  0.00    -0.249 N 
HETATM    6  C   MEZ     1      -5.344   0.081   2.031  1.00  0.00     0.159 C 
HETATM    7  C   MEZ     1      -4.630  -0.647  -0.090  1.00  0.00     0.342 C 
HETATM    8  C   MEZ     1      -6.604  -0.171   1.206  1.00  0.00     0.167 C 
HETATM    9  N   MEZ     1      -6.043  -0.844   0.015  1.00  0.00    -0.225 N 
HETATM   10  O   MEZ     1      -3.957  -0.946  -1.065  1.00  0.00    -0.245 OA
HETATM   11  H   MEZ     1      -2.175  -0.321  -0.292  1.00  0.00     0.165 HD
BRANCH   9  12
HETATM   12  S   MEZ     1      -7.078  -1.296  -1.241  1.00  0.00     0.232 S 
HETATM   13  O   MEZ     1      -6.318  -1.966  -2.283  1.00  0.00    -0.206 OA
HETATM   14  O   MEZ     1      -8.278  -1.905  -0.690  1.00  0.00    -0.206 OA
HETATM   15  C   MEZ     1      -7.530   0.309  -1.859  1.00  0.00     0.186 C 
ENDBRANCH   9  12
ENDBRANCH   1   2
BRANCH   1  16
HETATM   16  C   MEZ     1       0.323  -0.642   0.155  1.00  0.00     0.245 C 
HETATM   17  O   MEZ     1       0.021  -1.164  -0.918  1.00  0.00    -0.271 OA
HETATM   18  N   MEZ     1       1.499  -0.920   0.854  1.00  0.00    -0.344 N 
HETATM   19  H   MEZ     1       1.657  -0.426   1.729  1.00  0.00     0.163 HD
BRANCH  18  20
HETATM   20  CA  MEZ     1       2.502  -1.869   0.377  1.00  0.00     0.199 A 
HETATM   21  C   MEZ     1       3.381  -1.452  -0.811  1.00  0.00     0.160 A 
HETATM   22  S   MEZ     1       3.329   0.311  -1.297  1.00  0.00    -0.135 SA
HETATM   23  N   MEZ     1       4.530  -1.517   0.097  1.00  0.00    -0.219 NA
HETATM   24  C   MEZ     1       5.180   0.448  -1.147  1.00  0.00     0.029 C 
HETATM   25  CA  MEZ     1       5.515  -0.455   0.061  1.00  0.00     0.182 C 
HETATM   26  C   MEZ     1       5.551   1.906  -0.873  1.00  0.00     0.029 C 
HETATM   27  C   MEZ     1       5.797  -0.011  -2.475  1.00  0.00     0.029 C 
HETATM   28  C   MEZ     1       3.808  -1.883   1.196  1.00  0.00     0.227 A 
HETATM   29  O   MEZ     1       4.099  -2.018   2.362  1.00  0.00    -0.277 OA
BRANCH  25  30
HETATM   30  C   MEZ     1       6.862  -1.103   0.021  1.00  0.00     0.160 C 
HETATM   31  OXT MEZ     1       7.119  -2.155  -0.546  1.00  0.00    -0.649 OA
BRANCH  30  32
HETATM   32  O   MEZ     1       7.770  -0.363   0.704  1.00  0.00    -0.775 OA
HETATM   33  H   MEZ     1       8.661  -0.772   0.689  1.00  0.00     0.167 HD
ENDBRANCH  30  32
ENDBRANCH  25  30
ENDBRANCH  18  20
ENDBRANCH   1  16
BRANCH   1  34
HETATM   34  C   MEZ     1      -0.189   1.809   0.358  1.00  0.00    -0.026 A 
HETATM   35  C   MEZ     1       0.791   2.550   1.019  1.00  0.00     0.010 A 
HETATM   36  C   MEZ     1       1.110   3.834   0.578  1.00  0.00     0.001 A 
HETATM   37  C   MEZ     1       0.448   4.378  -0.522  1.00  0.00     0.000 A 
HETATM   38  C   MEZ     1      -0.532   3.638  -1.182  1.00  0.00     0.001 A 
HETATM   39  C   MEZ     1      -0.851   2.353  -0.742  1.00  0.00     0.010 A 
ENDBRANCH   1  34
TORSDOF 7
