REMARK  5 active torsions:
REMARK  status: ('A' for Active; 'I' for Inactive)
REMARK    1  A    between atoms: C2_3  and  C7_10 
REMARK    2  A    between atoms: C7_10  and  C8_11 
REMARK    3  A    between atoms: C8_11  and  C9_12 
REMARK    4  A    between atoms: C9_12  and  C10_13 
REMARK    5  A    between atoms: C10_13  and  C11_14 
ROOT
HETATM    1  N1  BTN A 300     -14.836  -7.739 -35.251  1.00 17.73    -0.217 NA
HETATM    2  S1  BTN A 300     -17.915  -7.431 -34.056  1.00 16.59    -0.137 SA
HETATM    3  C2  BTN A 300     -18.169  -8.623 -35.434  1.00 17.74     0.072 C 
HETATM    4  N2  BTN A 300     -16.276  -7.902 -36.885  1.00 17.92    -0.217 NA
HETATM    5  C3  BTN A 300     -15.183  -7.241 -36.443  1.00 17.95     0.360 A 
HETATM    6  O3  BTN A 300     -14.638  -6.326 -37.097  1.00 17.93    -0.243 OA
HETATM    7  C4  BTN A 300     -16.736  -8.916 -35.938  1.00 17.65     0.141 A 
HETATM    8  C5  BTN A 300     -15.729  -8.804 -34.798  1.00 17.47     0.142 A 
HETATM    9  C6  BTN A 300     -16.481  -8.438 -33.523  1.00 17.06     0.084 C 
ENDROOT
BRANCH   3  10
HETATM   10  C7  BTN A 300     -19.051  -8.295 -36.570  1.00 18.33     0.013 C 
BRANCH  10  11
HETATM   11  C8  BTN A 300     -20.446  -7.694 -36.411  1.00 19.24     0.002 C 
BRANCH  11  12
HETATM   12  C9  BTN A 300     -21.483  -8.632 -35.940  1.00 20.09     0.011 C 
BRANCH  12  13
HETATM   13  C10 BTN A 300     -22.935  -8.203 -36.348  1.00 20.77     0.098 C 
BRANCH  13  14
HETATM   14  C11 BTN A 300     -23.932  -9.235 -35.957  1.00 21.57     0.185 C 
HETATM   15  O11 BTN A 300     -24.592  -9.228 -34.909  1.00 21.65    -0.647 OA
HETATM   16  O12 BTN A 300     -23.717 -10.412 -36.512  1.00 22.67    -0.647 OA
ENDBRANCH  13  14
ENDBRANCH  12  13
ENDBRANCH  11  12
ENDBRANCH  10  11
ENDBRANCH   3  10
TORSDOF 5
