REMARK  2 active torsions:
REMARK  status: ('A' for Active; 'I' for Inactive)
REMARK    1  A    between atoms: C4_4  and  N1_7 
REMARK    2  A    between atoms: N1_7  and  N2_8 
ROOT
HETATM    1  C1  PHZ     1      -2.273   0.092   0.092  1.00  0.00     0.000 A 
HETATM    2  C2  PHZ     1      -1.456  -0.576   1.000  1.00  0.00     0.002 A 
HETATM    3  C3  PHZ     1      -0.070  -0.604   0.808  1.00  0.00     0.030 A 
HETATM    4  C4  PHZ     1       0.521   0.054  -0.278  1.00  0.00     0.042 A 
HETATM    5  C5  PHZ     1      -0.323   0.690  -1.201  1.00  0.00     0.030 A 
HETATM    6  C6  PHZ     1      -1.708   0.721  -1.013  1.00  0.00     0.002 A 
ENDROOT
BRANCH   4   7
HETATM    7  N1  PHZ     1       1.911   0.004  -0.551  1.00  0.00    -0.324 N 
HETATM    8  H6  PHZ     1       2.207   0.772  -1.158  1.00  0.00     0.180 HD
BRANCH   7   9
HETATM    9  N2  PHZ     1       2.815  -0.329   0.469  1.00  0.00    -0.249 NA
HETATM   10  H7  PHZ     1       2.706  -1.312   0.725  1.00  0.00     0.143 HD
HETATM   11  H8  PHZ     1       2.626   0.218   1.312  1.00  0.00     0.143 HD
ENDBRANCH   7   9
ENDBRANCH   4   7
TORSDOF 2
