@<TRIPOS>MOLECULE
*****
 53 55 0 0 0
SMALL
GASTEIGER

@<TRIPOS>ATOM
      1  C1         9.0401   25.9084  -20.4692 C.3     1  PEN1       -0.0490
      2  N1        12.4823   24.3736  -19.9272 N.3     1  PEN1       -0.2537
      3  O1        12.8350   23.7292  -17.5689 O.3     1  PEN1       -0.3755
      4  S1        10.4183   23.7212  -21.4736 S.3     1  PEN1       -0.1321
      5  C2        10.0626   24.8139  -20.0745 C.3     1  PEN1        0.0329
      6  N2        12.2886   21.5602  -18.8886 N.3     1  PEN1       -0.2832
      7  O2        12.0684   19.8079  -20.4448 O.3     1  PEN1       -0.3774
      8  C3        11.4341   25.3847  -19.6128 C.3     1  PEN1        0.0784
      9  O3        12.9792   27.2492  -19.5332 O.3     1  PEN1       -0.3658
     10  C4        12.0403   23.2650  -20.7797 C.3     1  PEN1        0.0791
     11  O4        12.2225   26.5709  -21.6358 O.3     1  PEN1       -0.3658
     12  C5        12.9525   22.4629  -19.8851 C.3     1  PEN1        0.0746
     13  C6        13.3315   23.6557  -18.8988 C.3     1  PEN1        0.1278
     14  C7        11.3993   20.5037  -19.3987 C.3     1  PEN1        0.1068
     15  C8        10.9445   19.5072  -18.3015 C.3     1  PEN1       -0.0104
     16  C9        12.0744   18.6069  -17.7146 C.3     1  PEN1       -0.0375
     17  C10       12.7989   19.2568  -16.5092 C.3     1  PEN1       -0.0501
     18  C11       14.0207   18.4123  -16.0626 C.3     1  PEN1       -0.0528
     19  C12       13.8691   16.9032  -16.3789 C.3     1  PEN1       -0.0530
     20  C13       12.3953   16.4606  -16.2835 C.3     1  PEN1       -0.0528
     21  C14       11.4982   17.2247  -17.2915 C.3     1  PEN1       -0.0501
     22  C15       11.8596   26.7348  -20.2569 C.3     1  PEN1        0.1703
     23  C16        9.4431   24.0017  -18.9095 C.3     1  PEN1       -0.0490
     24  H01        8.0719   25.4607  -20.7061 H       1  PEN1        0.0243
     25  H02        8.8936   26.6199  -19.6527 H       1  PEN1        0.0243
     26  H03        9.3687   26.4570  -21.3547 H       1  PEN1        0.0243
     27  H04       12.5540   24.6510  -17.4510 H       1  PEN1        0.2115
     28  H05       12.9715   21.1566  -18.2518 H       1  PEN1        0.1248
     29  H06       12.9140   20.2740  -20.5710 H       1  PEN1        0.2114
     30  H07       11.3893   25.5536  -18.5341 H       1  PEN1        0.0527
     31  H08       12.7580   27.2340  -18.5790 H       1  PEN1        0.2125
     32  H09       12.7544   23.1087  -21.6018 H       1  PEN1        0.0596
     33  H10       12.8640   27.2560  -21.9000 H       1  PEN1        0.2125
     34  H11       13.8001   22.0086  -20.4161 H       1  PEN1        0.0524
     35  H12       14.1279   23.4599  -18.1750 H       1  PEN1        0.0784
     36  H13       10.5208   20.9876  -19.8532 H       1  PEN1        0.0765
     37  H14       10.1886   18.8647  -18.7609 H       1  PEN1        0.0306
     38  H15       10.4373   20.0458  -17.4971 H       1  PEN1        0.0306
     39  H16       12.8202   18.4191  -18.4905 H       1  PEN1        0.0302
     40  H17       12.0956   19.3434  -15.6767 H       1  PEN1        0.0268
     41  H18       13.1372   20.2665  -16.7434 H       1  PEN1        0.0268
     42  H19       14.1670   18.5491  -14.9884 H       1  PEN1        0.0265
     43  H20       14.9226   18.7824  -16.5562 H       1  PEN1        0.0265
     44  H21       14.4839   16.3184  -15.6906 H       1  PEN1        0.0265
     45  H22       14.2376   16.7008  -17.3882 H       1  PEN1        0.0265
     46  H23       12.0374   16.6451  -15.2674 H       1  PEN1        0.0265
     47  H24       12.3146   15.3854  -16.4615 H       1  PEN1        0.0265
     48  H25       11.3640   16.6158  -18.1894 H       1  PEN1        0.0268
     49  H26       10.5094   17.3487  -16.8423 H       1  PEN1        0.0268
     50  H27       11.0641   27.4922  -20.1953 H       1  PEN1        0.0922
     51  H28        8.5106   23.5266  -19.2233 H       1  PEN1        0.0243
     52  H29       10.1179   23.2164  -18.5674 H       1  PEN1        0.0243
     53  H30        9.2236   24.6490  -18.0568 H       1  PEN1        0.0243
@<TRIPOS>BOND
     1    33    11    1
     2    32    10    1
     3    11    22    1
     4    26     1    1
     5    50    22    1
     6    10     4    1
     7    10     2    1
     8    10    12    1
     9    25     1    1
    10    29     7    1
    11     4     5    1
    12     1    24    1
    13     1     5    1
    14    22     8    1
    15    22     9    1
    16    36    14    1
    17    34    12    1
    18     2     8    1
    19     2    13    1
    20     7    14    1
    21    12    13    1
    22    12     6    1
    23     5     8    1
    24     5    23    1
    25     8    30    1
    26     9    31    1
    27    14     6    1
    28    14    15    1
    29    13    35    1
    30    13     3    1
    31     6    28    1
    32    48    21    1
    33    39    16    1
    34    37    15    1
    35    51    23    1
    36    23    53    1
    37    23    52    1
    38    15    16    1
    39    15    38    1
    40    16    21    1
    41    16    17    1
    42    21    49    1
    43    21    20    1
    44     3    27    1
    45    45    19    1
    46    47    20    1
    47    20    19    1
    48    20    46    1
    49    19    18    1
    50    19    44    1
    51    41    17    1
    52    43    18    1
    53    17    18    1
    54    17    40    1
    55    18    42    1
