@<TRIPOS>MOLECULE
pgl.pdb
   37    36     1     0     0
SMALL
bcc


@<TRIPOS>ATOM
      1 C5          26.2240   -24.6720     4.0920 c3         1 PGL       0.179400
      2 C4          26.0700   -23.8440     5.3850 c3         1 PGL       0.120100
      3 C3          24.6330   -23.8480     5.9270 c3         1 PGL       0.115400
      4 O2          23.9050   -24.9780     5.4560 os         1 PGL      -0.483900
      5 C2          23.8340   -26.1800     6.1640 c          1 PGL       0.643100
      6 C1          22.5540   -26.5570     6.8300 c3         1 PGL      -0.156100
      7 O1          24.8340   -26.9430     6.2420 o          1 PGL      -0.524000
      8 O7          27.0200   -24.2150     6.3930 os         1 PGL      -0.440900
      9 C8          27.5100   -23.3910     7.4160 c          1 PGL       0.639100
     10 O8          26.9840   -23.3810     8.5620 o          1 PGL      -0.534000
     11 C9          28.7170   -22.5550     7.1600 c3         1 PGL      -0.150100
     12 O3          26.3750   -23.8210     2.9750 os         1 PGL      -0.584200
     13 P1          25.2420   -24.2280     1.7600 p5         1 PGL       1.645500
     14 O4          24.8630   -23.0110     0.9460 o          1 PGL      -0.785300
     15 O5          23.8490   -24.8450     2.4960 oh         1 PGL      -0.776400
     16 H9          23.5400   -25.5610     1.8860 ho         1 PGL       0.495000
     17 O6          25.8700   -25.4180     0.7020 os         1 PGL      -0.603200
     18 C6          24.8730   -25.8500    -0.2010 c3         1 PGL       0.140400
     19 C7          25.2300   -25.5140    -1.6560 c3         1 PGL       0.136800
     20 N1          24.8890   -24.1260    -1.9490 n8         1 PGL      -0.909800
     21 H14         23.9440   -23.9300    -1.5440 hn         1 PGL       0.362300
     22 H15         24.7920   -24.0350    -2.9860 hn         1 PGL       0.362300
     23 H           25.3530   -25.2790     3.9570 h1         1 PGL       0.072700
     24 H2          27.0940   -25.2890     4.1770 h1         1 PGL       0.072700
     25 H3          26.2890   -22.8340     5.1090 h1         1 PGL       0.101700
     26 H4          24.1370   -22.9560     5.6060 h1         1 PGL       0.073700
     27 H5          24.6750   -23.8950     6.9950 h1         1 PGL       0.073700
     28 H6          21.8240   -25.7940     6.6570 hc         1 PGL       0.084033
     29 H7          22.7170   -26.6620     7.8820 hc         1 PGL       0.084033
     30 H8          22.2030   -27.4850     6.4290 hc         1 PGL       0.084033
     31 H10         29.0300   -22.6820     6.1450 hc         1 PGL       0.080700
     32 H11         29.5060   -22.8570     7.8170 hc         1 PGL       0.080700
     33 H12         28.4820   -21.5260     7.3350 hc         1 PGL       0.080700
     34 H13         23.9500   -25.3700     0.0480 h1         1 PGL       0.049200
     35 H16         24.7910   -26.9140    -0.1180 h1         1 PGL       0.049200
     36 H17         24.6840   -26.1590    -2.3120 h1         1 PGL       0.060200
     37 H18         26.2810   -25.6540    -1.8000 h1         1 PGL       0.060200
@<TRIPOS>BOND
     1     1     2 1   
     2     1    12 1   
     3     1    23 1   
     4     1    24 1   
     5     2     3 1   
     6     2     8 1   
     7     2    25 1   
     8     3     4 1   
     9     3    26 1   
    10     3    27 1   
    11     4     5 1   
    12     5     6 1   
    13     5     7 2   
    14     6    28 1   
    15     6    29 1   
    16     6    30 1   
    17     8     9 1   
    18     9    10 2   
    19     9    11 1   
    20    11    31 1   
    21    11    32 1   
    22    11    33 1   
    23    12    13 1   
    24    13    14 2   
    25    13    15 1   
    26    13    17 1   
    27    15    16 1   
    28    17    18 1   
    29    18    19 1   
    30    18    34 1   
    31    18    35 1   
    32    19    20 1   
    33    19    36 1   
    34    19    37 1   
    35    20    21 1   
    36    20    22 1   
@<TRIPOS>SUBSTRUCTURE
     1 PGL         1 TEMP              0 ****  ****    0 ROOT
