@<TRIPOS>MOLECULE
pgl.pdb
 37 36 0 0 0
SMALL
GASTEIGER

@<TRIPOS>ATOM
      1  C5        26.2240  -24.6720    4.0920 C.3     1  PGL1        0.0993
      2  C4        26.0700  -23.8440    5.3850 C.3     1  PGL1        0.1605
      3  C3        24.6330  -23.8480    5.9270 C.3     1  PGL1        0.1315
      4  O2        23.9050  -24.9780    5.4560 O.3     1  PGL1       -0.4610
      5  C2        23.8340  -26.1800    6.1640 C.2     1  PGL1        0.3041
      6  C1        22.5540  -26.5570    6.8300 C.3     1  PGL1        0.0332
      7  O1        24.8340  -26.9430    6.2420 O.2     1  PGL1       -0.2512
      8  O7        27.0200  -24.2150    6.3930 O.3     1  PGL1       -0.4557
      9  C8        27.5100  -23.3910    7.4160 C.2     1  PGL1        0.3044
     10  O8        26.9840  -23.3810    8.5620 O.2     1  PGL1       -0.2512
     11  C9        28.7170  -22.5550    7.1600 C.3     1  PGL1        0.0332
     12  O3        26.3750  -23.8210    2.9750 O.3     1  PGL1       -0.2828
     13  P1        25.2420  -24.2280    1.7600 P.3     1  PGL1        0.4751
     14  O4        24.8630  -23.0110    0.9460 O.2     1  PGL1       -0.2273
     15  O5        23.8490  -24.8450    2.4960 O.3     1  PGL1       -0.3025
     16  H9        23.5400  -25.5610    1.8860 H       1  PGL1        0.2220
     17  O6        25.8700  -25.4180    0.7020 O.3     1  PGL1       -0.2854
     18  C6        24.8730  -25.8500   -0.2010 C.3     1  PGL1        0.0713
     19  C7        25.2300  -25.5140   -1.6560 C.3     1  PGL1        0.0172
     20  N1        24.8890  -24.1260   -1.9490 N.3     1  PGL1       -0.3279
     21  H14       23.9440  -23.9300   -1.5440 H       1  PGL1        0.1183
     22  H15       24.7920  -24.0350   -2.9860 H       1  PGL1        0.1183
     23  H         25.3530  -25.2790    3.9570 H       1  PGL1        0.0604
     24  H         27.0940  -25.2890    4.1770 H       1  PGL1        0.0604
     25  H         26.2890  -22.8340    5.1090 H       1  PGL1        0.0792
     26  H         24.1370  -22.9560    5.6060 H       1  PGL1        0.0736
     27  H         24.6750  -23.8950    6.9950 H       1  PGL1        0.0736
     28  H         21.8240  -25.7940    6.6570 H       1  PGL1        0.0342
     29  H         22.7170  -26.6620    7.8820 H       1  PGL1        0.0342
     30  H         22.2030  -27.4850    6.4290 H       1  PGL1        0.0342
     31  H         29.0300  -22.6820    6.1450 H       1  PGL1        0.0342
     32  H         29.5060  -22.8570    7.8170 H       1  PGL1        0.0342
     33  H         28.4820  -21.5260    7.3350 H       1  PGL1        0.0342
     34  H         23.9500  -25.3700    0.0480 H       1  PGL1        0.0578
     35  H         24.7910  -26.9140   -0.1180 H       1  PGL1        0.0578
     36  H         24.6840  -26.1590   -2.3120 H       1  PGL1        0.0444
     37  H         26.2810  -25.6540   -1.8000 H       1  PGL1        0.0444
@<TRIPOS>BOND
     1     1     2    1
     2     1    12    1
     3     1    23    1
     4     1    24    1
     5     2     3    1
     6     2     8    1
     7     2    25    1
     8     3     4    1
     9     3    26    1
    10     3    27    1
    11     4     5    1
    12     5     6    1
    13     5     7    2
    14     6    28    1
    15     6    29    1
    16     6    30    1
    17     8     9    1
    18     9    10    2
    19     9    11    1
    20    11    31    1
    21    11    32    1
    22    11    33    1
    23    12    13    1
    24    13    14    2
    25    13    15    1
    26    13    17    1
    27    15    16    1
    28    17    18    1
    29    18    19    1
    30    18    34    1
    31    18    35    1
    32    19    20    1
    33    19    36    1
    34    19    37    1
    35    20    21    1
    36    20    22    1
