MODEL 1
REMARK VINA RESULT:    -8.431      0.000      0.000
REMARK INTER + INTRA:         -13.323
REMARK INTER:                 -12.127
REMARK INTRA:                  -1.196
REMARK UNBOUND:                -1.196
REMARK  9 active torsions:
REMARK  status: ('A' for Active; 'I' for Inactive)
REMARK    1  A    between atoms: O6_12  and  C10_19 
REMARK    2  A    between atoms: O7_14  and  C16_29 
REMARK    3  A    between atoms: O9_18  and  C27_40 
REMARK    4  A    between atoms: O10_20  and  C28_41 
REMARK    5  A    between atoms: O12_24  and  C39_52 
REMARK    6  A    between atoms: O13_26  and  C40_53 
REMARK    7  A    between atoms: C34_47  and  C35_48 
REMARK    8  A    between atoms: C35_48  and  C36_49 
REMARK    9  A    between atoms: C36_49  and  C37_50 
ROOT
HETATM    1  C1  RAP A 108       1.048   8.472  18.031  1.00  5.98     0.292 C 
HETATM    2  O1  RAP A 108       1.095   9.438  16.989  1.00  9.08    -0.302 OA
HETATM    3  C2  RAP A 108       1.921   7.218  18.017  1.00  6.42     0.171 C 
HETATM    4  O2  RAP A 108       0.252   8.652  18.950  1.00 14.08    -0.262 OA
HETATM    5  C3  RAP A 108       2.529   6.957  19.387  1.00  5.50     0.033 C 
HETATM    6  O3  RAP A 108       1.889   5.830  15.726  1.00 10.38    -0.264 OA
HETATM    7  C4  RAP A 108       3.678   7.892  19.734  1.00  4.49     0.004 C 
HETATM    8  O4  RAP A 108       4.823   5.662  15.011  1.00 10.60    -0.281 OA
HETATM    9  C5  RAP A 108       4.713   7.800  18.627  1.00  4.19     0.024 C 
HETATM   10  O5  RAP A 108       4.369   8.692  14.226  1.00 10.76    -0.332 OA
HETATM   11  C6  RAP A 108       4.112   8.160  17.303  1.00  3.25     0.105 C 
HETATM   12  N7  RAP A 108       3.013   7.217  17.037  1.00  8.46    -0.307 N 
HETATM   13  C8  RAP A 108       2.899   6.526  15.893  1.00 10.06     0.297 C 
HETATM   14  O8  RAP A 108      -0.861  18.161  20.288  1.00 18.31    -0.293 OA
HETATM   15  C9  RAP A 108       3.913   6.495  14.910  1.00 11.13     0.279 C 
HETATM   16  C10 RAP A 108       3.927   7.458  13.710  1.00 16.59     0.246 C 
HETATM   17  C11 RAP A 108       2.504   7.653  13.043  1.00 10.40     0.059 C 
HETATM   18  O11 RAP A 108       2.612  11.446  18.556  1.00  9.49    -0.296 OA
HETATM   19  C12 RAP A 108       2.504   8.848  12.062  1.00 12.17     0.008 C 
HETATM   20  C13 RAP A 108       3.116  10.077  12.720  1.00 12.80     0.030 C 
HETATM   21  C14 RAP A 108       4.452   9.800  13.403  1.00 10.37     0.121 C 
HETATM   22  C15 RAP A 108       4.801  10.950  14.331  1.00  5.94     0.064 C 
HETATM   23  C16 RAP A 108       5.174  12.272  13.671  1.00  9.79     0.136 C 
HETATM   24  C17 RAP A 108       5.463  13.341  14.704  1.00 15.52    -0.017 C 
HETATM   25  C18 RAP A 108       4.641  14.380  14.784  1.00 14.38    -0.006 C 
HETATM   26  C19 RAP A 108       4.772  15.479  15.751  1.00  9.73    -0.001 C 
HETATM   27  C20 RAP A 108       3.916  16.489  15.697  1.00 10.26    -0.000 C 
HETATM   28  C21 RAP A 108       3.940  17.566  16.704  1.00 11.40    -0.005 C 
HETATM   29  C22 RAP A 108       2.975  18.463  16.786  1.00 17.77    -0.026 C 
HETATM   30  C23 RAP A 108       2.889  19.522  17.863  1.00 15.64     0.022 C 
HETATM   31  C24 RAP A 108       1.539  19.349  18.537  1.00 14.68     0.012 C 
HETATM   32  C25 RAP A 108       1.192  17.964  19.052  1.00 11.87     0.061 C 
HETATM   33  C26 RAP A 108      -0.312  17.820  19.244  1.00 11.65     0.180 C 
HETATM   34  C27 RAP A 108      -1.096  17.220  18.081  1.00  8.13     0.203 C 
HETATM   35  C28 RAP A 108      -1.092  15.657  18.066  1.00 10.80     0.163 C 
HETATM   36  C29 RAP A 108       0.182  15.050  17.446  1.00  9.60    -0.019 C 
HETATM   37  C30 RAP A 108       1.098  14.399  18.162  1.00  8.55    -0.025 C 
HETATM   38  C31 RAP A 108       2.387  13.703  17.702  1.00  8.43     0.079 C 
HETATM   39  C32 RAP A 108       2.171  12.190  17.674  1.00 10.69     0.157 C 
HETATM   40  C33 RAP A 108       1.328  11.664  16.518  1.00  6.51     0.095 C 
HETATM   41  C34 RAP A 108       0.344  10.601  16.959  1.00  9.62     0.132 C 
HETATM   42  C43 RAP A 108       1.910   6.384  12.362  1.00 11.25     0.005 C 
HETATM   43  C44 RAP A 108       6.726  13.124  15.556  1.00 14.40     0.029 C 
HETATM   44  C45 RAP A 108       3.021  20.917  17.271  1.00  9.23     0.005 C 
HETATM   45  C46 RAP A 108       1.941  17.639  20.346  1.00 15.99     0.008 C 
HETATM   46  C47 RAP A 108       0.313  15.271  15.951  1.00 14.60     0.029 C 
HETATM   47  C48 RAP A 108       3.515  14.047  18.688  1.00  9.37     0.013 C 
ENDROOT
BRANCH  41  48
HETATM   48  C35 RAP A 108      -0.866  10.297  16.053  1.00  9.58     0.028 C 
HETATM   49  C49 RAP A 108      -0.463   9.621  14.774  1.00  8.29     0.003 C 
BRANCH  48  50
HETATM   50  C36 RAP A 108      -1.694  11.546  15.760  1.00 10.31     0.003 C 
BRANCH  50  51
HETATM   51  C37 RAP A 108      -2.700  11.468  14.610  1.00 22.90     0.003 C 
HETATM   52  C38 RAP A 108      -3.785  10.433  14.930  1.00 14.17     0.032 C 
HETATM   53  C39 RAP A 108      -4.762  10.215  13.773  1.00 34.20     0.142 C 
HETATM   54  C40 RAP A 108      -5.358  11.588  13.309  1.00 38.24     0.138 C 
HETATM   55  C41 RAP A 108      -4.280  12.651  13.017  1.00 16.32     0.032 C 
HETATM   56  C42 RAP A 108      -3.329  12.798  14.196  1.00 14.05     0.003 C 
BRANCH  53  57
HETATM   57  O12 RAP A 108      -5.780   9.380  14.263  1.00 30.82    -0.352 OA
HETATM   58  C52 RAP A 108      -6.142   8.304  13.466  1.00 28.14     0.174 C 
ENDBRANCH  53  57
BRANCH  54  59
HETATM   59  O13 RAP A 108      -6.142  11.385  12.135  1.00 28.84    -0.382 OA
HETATM   60  HO3 RAP A 108      -5.666  11.719  11.364  1.00 13.32     0.210 HD
ENDBRANCH  54  59
ENDBRANCH  50  51
ENDBRANCH  48  50
ENDBRANCH  41  48
BRANCH  35  61
HETATM   61  O10 RAP A 108      -1.232  15.212  19.422  1.00 12.16    -0.378 OA
HETATM   62  HO1 RAP A 108      -1.948  15.680  19.877  1.00 13.32     0.211 HD
ENDBRANCH  35  61
BRANCH  16  63
HETATM   63  O6  RAP A 108       4.835   6.954  12.725  1.00 14.16    -0.358 OA
HETATM   64  HO6 RAP A 108       5.717   6.946  13.110  1.00 13.32     0.213 HD
ENDBRANCH  16  63
BRANCH  34  65
HETATM   65  O9  RAP A 108      -2.437  17.618  18.191  1.00 23.09    -0.344 OA
HETATM   66  C51 RAP A 108      -3.133  17.710  16.998  1.00 19.04     0.175 C 
ENDBRANCH  34  65
BRANCH  23  67
HETATM   67  O7  RAP A 108       6.314  12.055  12.898  1.00 20.17    -0.350 OA
HETATM   68  C50 RAP A 108       6.890  13.183  12.321  1.00 28.36     0.175 C 
ENDBRANCH  23  67
TORSDOF 9
ENDMDL
MODEL 2
REMARK VINA RESULT:    -7.892      1.715      1.978
REMARK INTER + INTRA:         -12.548
REMARK INTER:                 -10.420
REMARK INTRA:                  -2.129
REMARK UNBOUND:                -1.196
REMARK  9 active torsions:
REMARK  status: ('A' for Active; 'I' for Inactive)
REMARK    1  A    between atoms: O6_12  and  C10_19 
REMARK    2  A    between atoms: O7_14  and  C16_29 
REMARK    3  A    between atoms: O9_18  and  C27_40 
REMARK    4  A    between atoms: O10_20  and  C28_41 
REMARK    5  A    between atoms: O12_24  and  C39_52 
REMARK    6  A    between atoms: O13_26  and  C40_53 
REMARK    7  A    between atoms: C34_47  and  C35_48 
REMARK    8  A    between atoms: C35_48  and  C36_49 
REMARK    9  A    between atoms: C36_49  and  C37_50 
ROOT
HETATM    1  C1  RAP A 108       1.021   8.631  18.060  1.00  5.98     0.292 C 
HETATM    2  O1  RAP A 108       1.091   9.646  17.068  1.00  9.08    -0.302 OA
HETATM    3  C2  RAP A 108       1.858   7.354  17.976  1.00  6.42     0.171 C 
HETATM    4  O2  RAP A 108       0.236   8.786  18.992  1.00 14.08    -0.262 OA
HETATM    5  C3  RAP A 108       2.465   7.006  19.327  1.00  5.50     0.033 C 
HETATM    6  O3  RAP A 108       1.772   6.086  15.617  1.00 10.38    -0.264 OA
HETATM    7  C4  RAP A 108       3.643   7.889  19.712  1.00  4.49     0.004 C 
HETATM    8  O4  RAP A 108       4.696   5.870  14.873  1.00 10.60    -0.281 OA
HETATM    9  C5  RAP A 108       4.669   7.823  18.594  1.00  4.19     0.024 C 
HETATM   10  O5  RAP A 108       4.325   8.948  14.247  1.00 10.76    -0.332 OA
HETATM   11  C6  RAP A 108       4.071   8.267  17.295  1.00  3.25     0.105 C 
HETATM   12  N7  RAP A 108       2.943   7.371  16.990  1.00  8.46    -0.307 N 
HETATM   13  C8  RAP A 108       2.803   6.743  15.812  1.00 10.06     0.297 C 
HETATM   14  O8  RAP A 108      -0.592  18.243  20.821  1.00 18.31    -0.293 OA
HETATM   15  C9  RAP A 108       3.810   6.733  14.822  1.00 11.13     0.279 C 
HETATM   16  C10 RAP A 108       3.845   7.756  13.672  1.00 16.59     0.246 C 
HETATM   17  C11 RAP A 108       2.424   8.025  13.026  1.00 10.40     0.059 C 
HETATM   18  O11 RAP A 108       2.675  11.527  18.724  1.00  9.49    -0.296 OA
HETATM   19  C12 RAP A 108       2.453   9.268  12.108  1.00 12.17     0.008 C 
HETATM   20  C13 RAP A 108       3.105  10.444  12.823  1.00 12.80     0.030 C 
HETATM   21  C14 RAP A 108       4.436  10.094  13.480  1.00 10.37     0.121 C 
HETATM   22  C15 RAP A 108       4.823  11.184  14.463  1.00  5.94     0.064 C 
HETATM   23  C16 RAP A 108       5.232  12.527  13.869  1.00  9.79     0.136 C 
HETATM   24  C17 RAP A 108       5.557  13.533  14.953  1.00 15.52    -0.017 C 
HETATM   25  C18 RAP A 108       4.767  14.590  15.092  1.00 14.38    -0.006 C 
HETATM   26  C19 RAP A 108       4.935  15.634  16.112  1.00  9.73    -0.001 C 
HETATM   27  C20 RAP A 108       4.108  16.670  16.116  1.00 10.26    -0.000 C 
HETATM   28  C21 RAP A 108       4.169  17.693  17.176  1.00 11.40    -0.005 C 
HETATM   29  C22 RAP A 108       3.231  18.612  17.310  1.00 17.77    -0.026 C 
HETATM   30  C23 RAP A 108       3.183  19.617  18.441  1.00 15.64     0.022 C 
HETATM   31  C24 RAP A 108       1.832  19.449  19.114  1.00 14.68     0.012 C 
HETATM   32  C25 RAP A 108       1.447  18.050  19.561  1.00 11.87     0.061 C 
HETATM   33  C26 RAP A 108      -0.059  17.939  19.756  1.00 11.65     0.180 C 
HETATM   34  C27 RAP A 108      -0.867  17.422  18.570  1.00  8.13     0.203 C 
HETATM   35  C28 RAP A 108      -0.908  15.863  18.476  1.00 10.80     0.163 C 
HETATM   36  C29 RAP A 108       0.344  15.252  17.817  1.00  9.60    -0.019 C 
HETATM   37  C30 RAP A 108       1.245  14.538  18.491  1.00  8.55    -0.025 C 
HETATM   38  C31 RAP A 108       2.511  13.830  17.988  1.00  8.43     0.079 C 
HETATM   39  C32 RAP A 108       2.250  12.327  17.884  1.00 10.69     0.157 C 
HETATM   40  C33 RAP A 108       1.386  11.886  16.709  1.00  6.51     0.095 C 
HETATM   41  C34 RAP A 108       0.373  10.830  17.103  1.00  9.62     0.132 C 
HETATM   42  C43 RAP A 108       1.790   6.810  12.286  1.00 11.25     0.005 C 
HETATM   43  C44 RAP A 108       6.818  13.237  15.783  1.00 14.40     0.029 C 
HETATM   44  C45 RAP A 108       3.352  21.036  17.919  1.00  9.23     0.005 C 
HETATM   45  C46 RAP A 108       2.194  17.637  20.832  1.00 15.99     0.008 C 
HETATM   46  C47 RAP A 108       0.473  15.545  16.334  1.00 14.60     0.029 C 
HETATM   47  C48 RAP A 108       3.654  14.091  18.981  1.00  9.37     0.013 C 
ENDROOT
BRANCH  41  48
HETATM   48  C35 RAP A 108      -0.850  10.608  16.191  1.00  9.58     0.028 C 
HETATM   49  C49 RAP A 108      -0.476   9.973  14.883  1.00  8.29     0.003 C 
BRANCH  48  50
HETATM   50  C36 RAP A 108      -1.634  11.897  15.956  1.00 10.31     0.003 C 
BRANCH  50  51
HETATM   51  C37 RAP A 108      -2.953  12.065  16.714  1.00 22.90     0.003 C 
HETATM   52  C38 RAP A 108      -3.170  10.878  17.660  1.00 14.17     0.032 C 
HETATM   53  C39 RAP A 108      -4.527  10.918  18.367  1.00 34.20     0.142 C 
HETATM   54  C40 RAP A 108      -4.718  12.300  19.081  1.00 38.24     0.138 C 
HETATM   55  C41 RAP A 108      -4.467  13.505  18.152  1.00 16.32     0.032 C 
HETATM   56  C42 RAP A 108      -3.116  13.388  17.463  1.00 14.05     0.003 C 
BRANCH  53  57
HETATM   57  O12 RAP A 108      -4.516   9.876  19.309  1.00 30.82    -0.352 OA
HETATM   58  C52 RAP A 108      -3.391   9.773  20.112  1.00 28.14     0.174 C 
ENDBRANCH  53  57
BRANCH  54  59
HETATM   59  O13 RAP A 108      -6.044  12.379  19.600  1.00 28.84    -0.382 OA
HETATM   60  HO3 RAP A 108      -6.681  12.252  18.885  1.00 13.32     0.210 HD
ENDBRANCH  54  59
ENDBRANCH  50  51
ENDBRANCH  48  50
ENDBRANCH  41  48
BRANCH  35  61
HETATM   61  O10 RAP A 108      -1.053  15.353  19.808  1.00 12.16    -0.378 OA
HETATM   62  HO1 RAP A 108      -0.547  15.877  20.446  1.00 13.32     0.211 HD
ENDBRANCH  35  61
BRANCH  16  63
HETATM   63  O6  RAP A 108       4.732   7.277  12.657  1.00 14.16    -0.358 OA
HETATM   64  HO6 RAP A 108       4.882   6.340  12.810  1.00 13.32     0.213 HD
ENDBRANCH  16  63
BRANCH  34  65
HETATM   65  O9  RAP A 108      -2.195  17.852  18.710  1.00 23.09    -0.344 OA
HETATM   66  C51 RAP A 108      -3.076  17.396  17.744  1.00 19.04     0.175 C 
ENDBRANCH  34  65
BRANCH  23  67
HETATM   67  O7  RAP A 108       6.359  12.317  13.078  1.00 20.17    -0.350 OA
HETATM   68  C50 RAP A 108       6.770  13.391  12.294  1.00 28.36     0.175 C 
ENDBRANCH  23  67
TORSDOF 9
ENDMDL
MODEL 3
REMARK VINA RESULT:    -7.541      3.897      9.008
REMARK INTER + INTRA:         -12.043
REMARK INTER:                 -10.201
REMARK INTRA:                  -1.842
REMARK UNBOUND:                -1.196
REMARK  9 active torsions:
REMARK  status: ('A' for Active; 'I' for Inactive)
REMARK    1  A    between atoms: O6_12  and  C10_19 
REMARK    2  A    between atoms: O7_14  and  C16_29 
REMARK    3  A    between atoms: O9_18  and  C27_40 
REMARK    4  A    between atoms: O10_20  and  C28_41 
REMARK    5  A    between atoms: O12_24  and  C39_52 
REMARK    6  A    between atoms: O13_26  and  C40_53 
REMARK    7  A    between atoms: C34_47  and  C35_48 
REMARK    8  A    between atoms: C35_48  and  C36_49 
REMARK    9  A    between atoms: C36_49  and  C37_50 
ROOT
HETATM    1  C1  RAP A 108      -2.837   9.666  19.949  1.00  5.98     0.292 C 
HETATM    2  O1  RAP A 108      -1.464   9.948  20.186  1.00  9.08    -0.302 OA
HETATM    3  C2  RAP A 108      -3.935  10.111  20.914  1.00  6.42     0.171 C 
HETATM    4  O2  RAP A 108      -3.130   9.016  18.948  1.00 14.08    -0.262 OA
HETATM    5  C3  RAP A 108      -5.126  10.686  20.162  1.00  5.50     0.033 C 
HETATM    6  O3  RAP A 108      -3.498   9.525  23.492  1.00 10.38    -0.264 OA
HETATM    7  C4  RAP A 108      -4.884  12.085  19.613  1.00  4.49     0.004 C 
HETATM    8  O4  RAP A 108      -3.756  12.221  24.838  1.00 10.60    -0.281 OA
HETATM    9  C5  RAP A 108      -4.455  12.977  20.763  1.00  4.19     0.024 C 
HETATM   10  O5  RAP A 108      -0.913  12.673  23.529  1.00 10.76    -0.332 OA
HETATM   11  C6  RAP A 108      -3.221  12.441  21.422  1.00  3.25     0.105 C 
HETATM   12  N7  RAP A 108      -3.531  11.092  21.926  1.00  8.46    -0.307 N 
HETATM   13  C8  RAP A 108      -3.291  10.708  23.189  1.00 10.06     0.297 C 
HETATM   14  O8  RAP A 108       3.304  10.948  11.995  1.00 18.31    -0.293 OA
HETATM   15  C9  RAP A 108      -2.890  11.606  24.203  1.00 11.13     0.279 C 
HETATM   16  C10 RAP A 108      -1.411  11.846  24.554  1.00 16.59     0.246 C 
HETATM   17  C11 RAP A 108      -0.554  10.516  24.612  1.00 10.40     0.059 C 
HETATM   18  O11 RAP A 108      -1.278  12.093  18.148  1.00  9.49    -0.296 OA
HETATM   19  C12 RAP A 108       0.960  10.825  24.653  1.00 12.17     0.008 C 
HETATM   20  C13 RAP A 108       1.329  11.821  23.562  1.00 12.80     0.030 C 
HETATM   21  C14 RAP A 108       0.419  13.044  23.521  1.00 10.37     0.121 C 
HETATM   22  C15 RAP A 108       0.611  13.781  22.207  1.00  5.94     0.064 C 
HETATM   23  C16 RAP A 108       1.938  14.503  22.015  1.00  9.79     0.136 C 
HETATM   24  C17 RAP A 108       2.015  15.163  20.655  1.00 15.52    -0.017 C 
HETATM   25  C18 RAP A 108       2.901  14.705  19.780  1.00 14.38    -0.006 C 
HETATM   26  C19 RAP A 108       3.074  15.221  18.414  1.00  9.73    -0.001 C 
HETATM   27  C20 RAP A 108       4.031  14.714  17.650  1.00 10.26    -0.000 C 
HETATM   28  C21 RAP A 108       4.184  15.124  16.242  1.00 11.40    -0.005 C 
HETATM   29  C22 RAP A 108       4.992  14.486  15.416  1.00 17.77    -0.026 C 
HETATM   30  C23 RAP A 108       5.108  14.790  13.938  1.00 15.64     0.022 C 
HETATM   31  C24 RAP A 108       4.821  13.492  13.203  1.00 14.68     0.012 C 
HETATM   32  C25 RAP A 108       3.534  12.768  13.550  1.00 11.87     0.061 C 
HETATM   33  C26 RAP A 108       3.607  11.305  13.131  1.00 11.65     0.180 C 
HETATM   34  C27 RAP A 108       4.061  10.310  14.194  1.00  8.13     0.203 C 
HETATM   35  C28 RAP A 108       2.909   9.835  15.137  1.00 10.80     0.163 C 
HETATM   36  C29 RAP A 108       2.597  10.824  16.277  1.00  9.60    -0.019 C 
HETATM   37  C30 RAP A 108       1.472  11.536  16.333  1.00  8.55    -0.025 C 
HETATM   38  C31 RAP A 108       0.989  12.522  17.407  1.00  8.43     0.079 C 
HETATM   39  C32 RAP A 108      -0.074  11.851  18.277  1.00 10.69     0.157 C 
HETATM   40  C33 RAP A 108       0.444  10.824  19.277  1.00  6.51     0.095 C 
HETATM   41  C34 RAP A 108      -0.430   9.588  19.337  1.00  9.62     0.132 C 
HETATM   42  C43 RAP A 108      -0.942   9.524  25.748  1.00 11.25     0.005 C 
HETATM   43  C44 RAP A 108       1.056  16.346  20.430  1.00 14.40     0.029 C 
HETATM   44  C45 RAP A 108       6.497  15.309  13.594  1.00  9.23     0.005 C 
HETATM   45  C46 RAP A 108       2.314  13.453  12.928  1.00 15.99     0.008 C 
HETATM   46  C47 RAP A 108       3.689  10.932  17.324  1.00 14.60     0.029 C 
HETATM   47  C48 RAP A 108       0.389  13.755  16.713  1.00  9.37     0.013 C 
ENDROOT
BRANCH  41  48
HETATM   48  C35 RAP A 108       0.166   8.294  19.926  1.00  9.58     0.028 C 
HETATM   49  C49 RAP A 108      -0.472   7.917  21.232  1.00  8.29     0.003 C 
BRANCH  48  50
HETATM   50  C36 RAP A 108       1.684   8.376  20.077  1.00 10.31     0.003 C 
BRANCH  50  51
HETATM   51  C37 RAP A 108       2.527   7.439  19.209  1.00 22.90     0.003 C 
HETATM   52  C38 RAP A 108       2.088   7.543  17.744  1.00 14.17     0.032 C 
HETATM   53  C39 RAP A 108       2.809   6.547  16.832  1.00 34.20     0.142 C 
HETATM   54  C40 RAP A 108       4.360   6.686  17.008  1.00 38.24     0.138 C 
HETATM   55  C41 RAP A 108       4.814   6.619  18.480  1.00 16.32     0.032 C 
HETATM   56  C42 RAP A 108       4.040   7.615  19.333  1.00 14.05     0.003 C 
BRANCH  53  57
HETATM   57  O12 RAP A 108       2.433   6.867  15.517  1.00 30.82    -0.352 OA
HETATM   58  C52 RAP A 108       1.911   5.837  14.749  1.00 28.14     0.174 C 
ENDBRANCH  53  57
BRANCH  54  59
HETATM   59  O13 RAP A 108       5.008   5.650  16.272  1.00 28.84    -0.382 OA
HETATM   60  HO3 RAP A 108       5.963   5.708  16.401  1.00 13.32     0.210 HD
ENDBRANCH  54  59
ENDBRANCH  50  51
ENDBRANCH  48  50
ENDBRANCH  41  48
BRANCH  35  61
HETATM   61  O10 RAP A 108       1.741   9.642  14.328  1.00 12.16    -0.378 OA
HETATM   62  HO1 RAP A 108       1.462   8.715  14.323  1.00 13.32     0.211 HD
ENDBRANCH  35  61
BRANCH  16  63
HETATM   63  O6  RAP A 108      -1.340  12.499  25.826  1.00 14.16    -0.358 OA
HETATM   64  HO6 RAP A 108      -0.800  13.288  25.725  1.00 13.32     0.213 HD
ENDBRANCH  16  63
BRANCH  34  65
HETATM   65  O9  RAP A 108       4.556   9.164  13.554  1.00 23.09    -0.344 OA
HETATM   66  C51 RAP A 108       5.661   9.363  12.744  1.00 19.04     0.175 C 
ENDBRANCH  34  65
BRANCH  23  67
HETATM   67  O7  RAP A 108       2.041  15.475  23.008  1.00 20.17    -0.350 OA
HETATM   68  C50 RAP A 108       3.297  15.634  23.587  1.00 28.36     0.175 C 
ENDBRANCH  23  67
TORSDOF 9
ENDMDL
MODEL 4
REMARK VINA RESULT:    -7.476      5.385     10.024
REMARK INTER + INTRA:         -11.950
REMARK INTER:                 -10.035
REMARK INTRA:                  -1.915
REMARK UNBOUND:                -1.196
REMARK  9 active torsions:
REMARK  status: ('A' for Active; 'I' for Inactive)
REMARK    1  A    between atoms: O6_12  and  C10_19 
REMARK    2  A    between atoms: O7_14  and  C16_29 
REMARK    3  A    between atoms: O9_18  and  C27_40 
REMARK    4  A    between atoms: O10_20  and  C28_41 
REMARK    5  A    between atoms: O12_24  and  C39_52 
REMARK    6  A    between atoms: O13_26  and  C40_53 
REMARK    7  A    between atoms: C34_47  and  C35_48 
REMARK    8  A    between atoms: C35_48  and  C36_49 
REMARK    9  A    between atoms: C36_49  and  C37_50 
ROOT
HETATM    1  C1  RAP A 108      -2.367   6.381  23.118  1.00  5.98     0.292 C 
HETATM    2  O1  RAP A 108      -1.553   7.502  22.799  1.00  9.08    -0.302 OA
HETATM    3  C2  RAP A 108      -2.808   6.078  24.550  1.00  6.42     0.171 C 
HETATM    4  O2  RAP A 108      -2.695   5.626  22.205  1.00 14.08    -0.262 OA
HETATM    5  C3  RAP A 108      -4.278   5.688  24.601  1.00  5.50     0.033 C 
HETATM    6  O3  RAP A 108      -0.849   6.105  26.377  1.00 10.38    -0.264 OA
HETATM    7  C4  RAP A 108      -5.228   6.866  24.437  1.00  4.49     0.004 C 
HETATM    8  O4  RAP A 108      -1.878   8.081  28.423  1.00 10.60    -0.281 OA
HETATM    9  C5  RAP A 108      -4.879   7.904  25.487  1.00  4.19     0.024 C 
HETATM   10  O5  RAP A 108      -1.052  10.169  26.197  1.00 10.76    -0.332 OA
HETATM   11  C6  RAP A 108      -3.454   8.345  25.350  1.00  3.25     0.105 C 
HETATM   12  N7  RAP A 108      -2.599   7.158  25.520  1.00  8.46    -0.307 N 
HETATM   13  C8  RAP A 108      -1.566   7.114  26.375  1.00 10.06     0.297 C 
HETATM   14  O8  RAP A 108      -3.437  10.751  14.041  1.00 18.31    -0.293 OA
HETATM   15  C9  RAP A 108      -1.311   8.128  27.324  1.00 11.13     0.279 C 
HETATM   16  C10 RAP A 108      -0.345   9.294  27.045  1.00 16.59     0.246 C 
HETATM   17  C11 RAP A 108       0.994   8.844  26.329  1.00 10.40     0.059 C 
HETATM   18  O11 RAP A 108      -3.749   9.101  21.614  1.00  9.49    -0.296 OA
HETATM   19  C12 RAP A 108       1.778  10.063  25.791  1.00 12.17     0.008 C 
HETATM   20  C13 RAP A 108       0.860  10.978  24.993  1.00 12.80     0.030 C 
HETATM   21  C14 RAP A 108      -0.442  11.313  25.715  1.00 10.37     0.121 C 
HETATM   22  C15 RAP A 108      -1.437  11.900  24.729  1.00  5.94     0.064 C 
HETATM   23  C16 RAP A 108      -1.130  13.294  24.196  1.00  9.79     0.136 C 
HETATM   24  C17 RAP A 108      -2.176  13.745  23.199  1.00 15.52    -0.017 C 
HETATM   25  C18 RAP A 108      -1.814  13.907  21.933  1.00 14.38    -0.006 C 
HETATM   26  C19 RAP A 108      -2.719  14.311  20.848  1.00  9.73    -0.001 C 
HETATM   27  C20 RAP A 108      -2.226  14.491  19.630  1.00 10.26    -0.000 C 
HETATM   28  C21 RAP A 108      -3.104  14.797  18.487  1.00 11.40    -0.005 C 
HETATM   29  C22 RAP A 108      -2.660  14.777  17.244  1.00 17.77    -0.026 C 
HETATM   30  C23 RAP A 108      -3.536  14.975  16.026  1.00 15.64     0.022 C 
HETATM   31  C24 RAP A 108      -3.343  13.752  15.147  1.00 14.68     0.012 C 
HETATM   32  C25 RAP A 108      -3.542  12.393  15.794  1.00 11.87     0.061 C 
HETATM   33  C26 RAP A 108      -2.864  11.301  14.978  1.00 11.65     0.180 C 
HETATM   34  C27 RAP A 108      -1.447  10.917  15.392  1.00  8.13     0.203 C 
HETATM   35  C28 RAP A 108      -1.396   9.880  16.559  1.00 10.80     0.163 C 
HETATM   36  C29 RAP A 108      -1.571  10.512  17.954  1.00  9.60    -0.019 C 
HETATM   37  C30 RAP A 108      -2.658  10.327  18.703  1.00  8.55    -0.025 C 
HETATM   38  C31 RAP A 108      -2.973  10.840  20.115  1.00  8.43     0.079 C 
HETATM   39  C32 RAP A 108      -2.790   9.707  21.125  1.00 10.69     0.157 C 
HETATM   40  C33 RAP A 108      -1.348   9.335  21.448  1.00  6.51     0.095 C 
HETATM   41  C34 RAP A 108      -1.141   7.836  21.520  1.00  9.62     0.132 C 
HETATM   42  C43 RAP A 108       1.922   7.924  27.175  1.00 11.25     0.005 C 
HETATM   43  C44 RAP A 108      -3.580  14.005  23.774  1.00 14.40     0.029 C 
HETATM   44  C45 RAP A 108      -3.153  16.243  15.277  1.00  9.23     0.005 C 
HETATM   45  C46 RAP A 108      -5.026  12.078  16.001  1.00 15.99     0.008 C 
HETATM   46  C47 RAP A 108      -0.407  11.377  18.397  1.00 14.60     0.029 C 
HETATM   47  C48 RAP A 108      -4.427  11.336  20.150  1.00  9.37     0.013 C 
ENDROOT
BRANCH  41  48
HETATM   48  C35 RAP A 108       0.291   7.284  21.381  1.00  9.58     0.028 C 
HETATM   49  C49 RAP A 108       0.991   7.177  22.705  1.00  8.29     0.003 C 
BRANCH  48  50
HETATM   50  C36 RAP A 108       1.130   8.099  20.398  1.00 10.31     0.003 C 
BRANCH  50  51
HETATM   51  C37 RAP A 108       2.076   7.327  19.474  1.00 22.90     0.003 C 
HETATM   52  C38 RAP A 108       1.701   7.579  18.009  1.00 14.17     0.032 C 
HETATM   53  C39 RAP A 108       2.531   6.747  17.029  1.00 34.20     0.142 C 
HETATM   54  C40 RAP A 108       4.059   6.961  17.305  1.00 38.24     0.138 C 
HETATM   55  C41 RAP A 108       4.446   6.747  18.783  1.00 16.32     0.032 C 
HETATM   56  C42 RAP A 108       3.566   7.582  19.702  1.00 14.05     0.003 C 
BRANCH  53  57
HETATM   57  O12 RAP A 108       2.198   7.198  15.741  1.00 30.82    -0.352 OA
HETATM   58  C52 RAP A 108       1.850   6.230  14.812  1.00 28.14     0.174 C 
ENDBRANCH  53  57
BRANCH  54  59
HETATM   59  O13 RAP A 108       4.811   6.063  16.491  1.00 28.84    -0.382 OA
HETATM   60  HO3 RAP A 108       4.436   6.039  15.602  1.00 13.32     0.210 HD
ENDBRANCH  54  59
ENDBRANCH  50  51
ENDBRANCH  48  50
ENDBRANCH  41  48
BRANCH  35  61
HETATM   61  O10 RAP A 108      -2.434   8.918  16.327  1.00 12.16    -0.378 OA
HETATM   62  HO1 RAP A 108      -2.336   8.492  15.463  1.00 13.32     0.211 HD
ENDBRANCH  35  61
BRANCH  16  63
HETATM   63  O6  RAP A 108      -0.017   9.928  28.285  1.00 14.16    -0.358 OA
HETATM   64  HO6 RAP A 108      -0.602   9.577  28.962  1.00 13.32     0.213 HD
ENDBRANCH  16  63
BRANCH  34  65
HETATM   65  O9  RAP A 108      -0.805  10.322  14.296  1.00 23.09    -0.344 OA
HETATM   66  C51 RAP A 108       0.554  10.101  14.447  1.00 19.04     0.175 C 
ENDBRANCH  34  65
BRANCH  23  67
HETATM   67  O7  RAP A 108      -1.114  14.170  25.279  1.00 20.17    -0.350 OA
HETATM   68  C50 RAP A 108      -0.025  15.034  25.356  1.00 28.36     0.175 C 
ENDBRANCH  23  67
TORSDOF 9
ENDMDL
MODEL 5
REMARK VINA RESULT:    -7.388      2.580      8.224
REMARK INTER + INTRA:         -11.823
REMARK INTER:                  -9.606
REMARK INTRA:                  -2.217
REMARK UNBOUND:                -1.196
REMARK  9 active torsions:
REMARK  status: ('A' for Active; 'I' for Inactive)
REMARK    1  A    between atoms: O6_12  and  C10_19 
REMARK    2  A    between atoms: O7_14  and  C16_29 
REMARK    3  A    between atoms: O9_18  and  C27_40 
REMARK    4  A    between atoms: O10_20  and  C28_41 
REMARK    5  A    between atoms: O12_24  and  C39_52 
REMARK    6  A    between atoms: O13_26  and  C40_53 
REMARK    7  A    between atoms: C34_47  and  C35_48 
REMARK    8  A    between atoms: C35_48  and  C36_49 
REMARK    9  A    between atoms: C36_49  and  C37_50 
ROOT
HETATM    1  C1  RAP A 108      -0.951   9.700  15.863  1.00  5.98     0.292 C 
HETATM    2  O1  RAP A 108       0.027  10.349  16.665  1.00  9.08    -0.302 OA
HETATM    3  C2  RAP A 108      -2.445   9.790  16.173  1.00  6.42     0.171 C 
HETATM    4  O2  RAP A 108      -0.564   9.025  14.912  1.00 14.08    -0.262 OA
HETATM    5  C3  RAP A 108      -3.254  10.030  14.908  1.00  5.50     0.033 C 
HETATM    6  O3  RAP A 108      -3.117   9.274  18.715  1.00 10.38    -0.264 OA
HETATM    7  C4  RAP A 108      -3.161  11.456  14.384  1.00  4.49     0.004 C 
HETATM    8  O4  RAP A 108      -4.667  11.747  19.507  1.00 10.60    -0.281 OA
HETATM    9  C5  RAP A 108      -3.565  12.398  15.504  1.00  4.19     0.024 C 
HETATM   10  O5  RAP A 108      -1.772  13.018  19.588  1.00 10.76    -0.332 OA
HETATM   11  C6  RAP A 108      -2.686  12.210  16.703  1.00  3.25     0.105 C 
HETATM   12  N7  RAP A 108      -2.829  10.815  17.150  1.00  8.46    -0.307 N 
HETATM   13  C8  RAP A 108      -3.111  10.475  18.417  1.00 10.06     0.297 C 
HETATM   14  O8  RAP A 108       7.600  12.891  11.469  1.00 18.31    -0.293 OA
HETATM   15  C9  RAP A 108      -3.478  11.419  19.402  1.00 11.13     0.279 C 
HETATM   16  C10 RAP A 108      -2.452  12.054  20.358  1.00 16.59     0.246 C 
HETATM   17  C11 RAP A 108      -1.405  11.016  20.936  1.00 10.40     0.059 C 
HETATM   18  O11 RAP A 108       0.568  12.520  14.720  1.00  9.49    -0.296 OA
HETATM   19  C12 RAP A 108      -0.224  11.737  21.626  1.00 12.17     0.008 C 
HETATM   20  C13 RAP A 108       0.334  12.829  20.723  1.00 12.80     0.030 C 
HETATM   21  C14 RAP A 108      -0.738  13.748  20.146  1.00 10.37     0.121 C 
HETATM   22  C15 RAP A 108      -0.159  14.548  18.992  1.00  5.94     0.064 C 
HETATM   23  C16 RAP A 108       0.864  15.619  19.348  1.00  9.79     0.136 C 
HETATM   24  C17 RAP A 108       1.387  16.315  18.109  1.00 15.52    -0.017 C 
HETATM   25  C18 RAP A 108       2.663  16.150  17.784  1.00 14.38    -0.006 C 
HETATM   26  C19 RAP A 108       3.308  16.734  16.599  1.00  9.73    -0.001 C 
HETATM   27  C20 RAP A 108       4.605  16.539  16.410  1.00 10.26    -0.000 C 
HETATM   28  C21 RAP A 108       5.280  17.017  15.189  1.00 11.40    -0.005 C 
HETATM   29  C22 RAP A 108       6.515  16.657  14.891  1.00 17.77    -0.026 C 
HETATM   30  C23 RAP A 108       7.219  17.026  13.603  1.00 15.64     0.022 C 
HETATM   31  C24 RAP A 108       7.657  15.722  12.959  1.00 14.68     0.012 C 
HETATM   32  C25 RAP A 108       6.597  14.655  12.758  1.00 11.87     0.061 C 
HETATM   33  C26 RAP A 108       7.236  13.285  12.574  1.00 11.65     0.180 C 
HETATM   34  C27 RAP A 108       7.388  12.426  13.825  1.00  8.13     0.203 C 
HETATM   35  C28 RAP A 108       6.100  11.619  14.187  1.00 10.80     0.163 C 
HETATM   36  C29 RAP A 108       5.048  12.447  14.952  1.00  9.60    -0.019 C 
HETATM   37  C30 RAP A 108       3.883  12.812  14.418  1.00  8.55    -0.025 C 
HETATM   38  C31 RAP A 108       2.718  13.590  15.046  1.00  8.43     0.079 C 
HETATM   39  C32 RAP A 108       1.591  12.622  15.406  1.00 10.69     0.157 C 
HETATM   40  C33 RAP A 108       1.834  11.752  16.633  1.00  6.51     0.095 C 
HETATM   41  C34 RAP A 108       1.390  10.319  16.420  1.00  9.62     0.132 C 
HETATM   42  C43 RAP A 108      -2.001   9.922  21.871  1.00 11.25     0.005 C 
HETATM   43  C44 RAP A 108       0.370  17.187  17.352  1.00 14.40     0.029 C 
HETATM   44  C45 RAP A 108       8.417  17.924  13.873  1.00  9.23     0.005 C 
HETATM   45  C46 RAP A 108       5.674  14.990  11.584  1.00 15.99     0.008 C 
HETATM   46  C47 RAP A 108       5.458  12.825  16.363  1.00 14.60     0.029 C 
HETATM   47  C48 RAP A 108       2.209  14.625  14.031  1.00  9.37     0.013 C 
ENDROOT
BRANCH  41  48
HETATM   48  C35 RAP A 108       1.960   9.227  17.347  1.00  9.58     0.028 C 
HETATM   49  C49 RAP A 108       2.771   9.803  18.472  1.00  8.29     0.003 C 
BRANCH  48  50
HETATM   50  C36 RAP A 108       2.774   8.188  16.579  1.00 10.31     0.003 C 
BRANCH  50  51
HETATM   51  C37 RAP A 108       2.377   7.919  15.125  1.00 22.90     0.003 C 
HETATM   52  C38 RAP A 108       3.470   8.430  14.179  1.00 14.17     0.032 C 
HETATM   53  C39 RAP A 108       3.090   8.301  12.703  1.00 34.20     0.142 C 
HETATM   54  C40 RAP A 108       2.660   6.827  12.387  1.00 38.24     0.138 C 
HETATM   55  C41 RAP A 108       1.586   6.287  13.353  1.00 16.32     0.032 C 
HETATM   56  C42 RAP A 108       2.017   6.470  14.801  1.00 14.05     0.003 C 
BRANCH  53  57
HETATM   57  O12 RAP A 108       4.233   8.647  11.965  1.00 30.82    -0.352 OA
HETATM   58  C52 RAP A 108       5.354   7.851  12.141  1.00 28.14     0.174 C 
ENDBRANCH  53  57
BRANCH  54  59
HETATM   59  O13 RAP A 108       2.161   6.762  11.052  1.00 28.84    -0.382 OA
HETATM   60  HO3 RAP A 108       2.722   7.289  10.469  1.00 13.32     0.210 HD
ENDBRANCH  54  59
ENDBRANCH  50  51
ENDBRANCH  48  50
ENDBRANCH  41  48
BRANCH  35  61
HETATM   61  O10 RAP A 108       5.537  11.131  12.963  1.00 12.16    -0.378 OA
HETATM   62  HO1 RAP A 108       6.099  11.344  12.203  1.00 13.32     0.211 HD
ENDBRANCH  35  61
BRANCH  16  63
HETATM   63  O6  RAP A 108      -3.153  12.662  21.447  1.00 14.16    -0.358 OA
HETATM   64  HO6 RAP A 108      -3.764  13.310  21.084  1.00 13.32     0.213 HD
ENDBRANCH  16  63
BRANCH  34  65
HETATM   65  O9  RAP A 108       8.404  11.485  13.603  1.00 23.09    -0.344 OA
HETATM   66  C51 RAP A 108       9.664  11.851  14.044  1.00 19.04     0.175 C 
ENDBRANCH  34  65
BRANCH  23  67
HETATM   67  O7  RAP A 108       0.236  16.551  20.172  1.00 20.17    -0.350 OA
HETATM   68  C50 RAP A 108       0.999  17.063  21.217  1.00 28.36     0.175 C 
ENDBRANCH  23  67
TORSDOF 9
ENDMDL
MODEL 6
REMARK VINA RESULT:    -7.263      5.402      9.345
REMARK INTER + INTRA:         -11.643
REMARK INTER:                  -9.775
REMARK INTRA:                  -1.868
REMARK UNBOUND:                -1.196
REMARK  9 active torsions:
REMARK  status: ('A' for Active; 'I' for Inactive)
REMARK    1  A    between atoms: O6_12  and  C10_19 
REMARK    2  A    between atoms: O7_14  and  C16_29 
REMARK    3  A    between atoms: O9_18  and  C27_40 
REMARK    4  A    between atoms: O10_20  and  C28_41 
REMARK    5  A    between atoms: O12_24  and  C39_52 
REMARK    6  A    between atoms: O13_26  and  C40_53 
REMARK    7  A    between atoms: C34_47  and  C35_48 
REMARK    8  A    between atoms: C35_48  and  C36_49 
REMARK    9  A    between atoms: C36_49  and  C37_50 
ROOT
HETATM    1  C1  RAP A 108      -2.715   7.937  22.004  1.00  5.98     0.292 C 
HETATM    2  O1  RAP A 108      -1.362   8.311  22.223  1.00  9.08    -0.302 OA
HETATM    3  C2  RAP A 108      -3.547   7.231  23.075  1.00  6.42     0.171 C 
HETATM    4  O2  RAP A 108      -3.208   8.169  20.902  1.00 14.08    -0.262 OA
HETATM    5  C3  RAP A 108      -4.945   7.825  23.164  1.00  5.50     0.033 C 
HETATM    6  O3  RAP A 108      -2.375   5.111  24.218  1.00 10.38    -0.264 OA
HETATM    7  C4  RAP A 108      -4.990   9.179  23.859  1.00  4.49     0.004 C 
HETATM    8  O4  RAP A 108      -2.505   5.788  27.163  1.00 10.60    -0.281 OA
HETATM    9  C5  RAP A 108      -4.348   9.030  25.226  1.00  4.19     0.024 C 
HETATM   10  O5  RAP A 108      -0.177   7.778  26.373  1.00 10.76    -0.332 OA
HETATM   11  C6  RAP A 108      -2.938   8.539  25.103  1.00  3.25     0.105 C 
HETATM   12  N7  RAP A 108      -2.975   7.233  24.425  1.00  8.46    -0.307 N 
HETATM   13  C8  RAP A 108      -2.367   6.139  24.908  1.00 10.06     0.297 C 
HETATM   14  O8  RAP A 108       0.893  16.137  17.275  1.00 18.31    -0.293 OA
HETATM   15  C9  RAP A 108      -1.791   6.084  26.196  1.00 11.13     0.279 C 
HETATM   16  C10 RAP A 108      -0.300   6.377  26.445  1.00 16.59     0.246 C 
HETATM   17  C11 RAP A 108       0.658   5.715  25.373  1.00 10.40     0.059 C 
HETATM   18  O11 RAP A 108      -1.933  11.202  22.550  1.00  9.49    -0.296 OA
HETATM   19  C12 RAP A 108       2.092   6.285  25.474  1.00 12.17     0.008 C 
HETATM   20  C13 RAP A 108       2.059   7.806  25.503  1.00 12.80     0.030 C 
HETATM   21  C14 RAP A 108       1.063   8.374  26.510  1.00 10.37     0.121 C 
HETATM   22  C15 RAP A 108       0.823   9.845  26.218  1.00  5.94     0.064 C 
HETATM   23  C16 RAP A 108       1.977  10.797  26.507  1.00  9.79     0.136 C 
HETATM   24  C17 RAP A 108       1.621  12.222  26.139  1.00 15.52    -0.017 C 
HETATM   25  C18 RAP A 108       2.274  12.798  25.138  1.00 14.38    -0.006 C 
HETATM   26  C19 RAP A 108       2.022  14.160  24.647  1.00  9.73    -0.001 C 
HETATM   27  C20 RAP A 108       2.779  14.644  23.671  1.00 10.26    -0.000 C 
HETATM   28  C21 RAP A 108       2.505  15.963  23.074  1.00 11.40    -0.005 C 
HETATM   29  C22 RAP A 108       3.114  16.369  21.975  1.00 17.77    -0.026 C 
HETATM   30  C23 RAP A 108       2.796  17.662  21.256  1.00 15.64     0.022 C 
HETATM   31  C24 RAP A 108       2.441  17.290  19.827  1.00 14.68     0.012 C 
HETATM   32  C25 RAP A 108       1.368  16.235  19.631  1.00 11.87     0.061 C 
HETATM   33  C26 RAP A 108       1.458  15.624  18.238  1.00 11.65     0.180 C 
HETATM   34  C27 RAP A 108       2.273  14.342  18.104  1.00  8.13     0.203 C 
HETATM   35  C28 RAP A 108       1.468  13.051  18.463  1.00 10.80     0.163 C 
HETATM   36  C29 RAP A 108       1.389  12.775  19.977  1.00  9.60    -0.019 C 
HETATM   37  C30 RAP A 108       0.261  12.889  20.677  1.00  8.55    -0.025 C 
HETATM   38  C31 RAP A 108      -0.001  12.614  22.165  1.00  8.43     0.079 C 
HETATM   39  C32 RAP A 108      -0.722  11.274  22.318  1.00 10.69     0.157 C 
HETATM   40  C33 RAP A 108       0.139  10.033  22.113  1.00  6.51     0.095 C 
HETATM   41  C34 RAP A 108      -0.568   8.969  21.299  1.00  9.62     0.132 C 
HETATM   42  C43 RAP A 108       0.686   4.157  25.378  1.00 11.25     0.005 C 
HETATM   43  C44 RAP A 108       0.533  12.884  27.003  1.00 14.40     0.029 C 
HETATM   44  C45 RAP A 108       3.986  18.611  21.286  1.00  9.23     0.005 C 
HETATM   45  C46 RAP A 108      -0.031  16.797  19.890  1.00 15.99     0.008 C 
HETATM   46  C47 RAP A 108       2.709  12.377  20.608  1.00 14.60     0.029 C 
HETATM   47  C48 RAP A 108      -0.878  13.742  22.731  1.00  9.37     0.013 C 
ENDROOT
BRANCH  41  48
HETATM   48  C35 RAP A 108       0.281   7.876  20.620  1.00  9.58     0.028 C 
HETATM   49  C49 RAP A 108       0.990   7.006  21.617  1.00  8.29     0.003 C 
BRANCH  48  50
HETATM   50  C36 RAP A 108       1.275   8.460  19.617  1.00 10.31     0.003 C 
BRANCH  50  51
HETATM   51  C37 RAP A 108       2.250   7.488  18.948  1.00 22.90     0.003 C 
HETATM   52  C38 RAP A 108       1.966   7.410  17.444  1.00 14.17     0.032 C 
HETATM   53  C39 RAP A 108       2.826   6.369  16.727  1.00 34.20     0.142 C 
HETATM   54  C40 RAP A 108       4.342   6.617  17.041  1.00 38.24     0.138 C 
HETATM   55  C41 RAP A 108       4.638   6.734  18.549  1.00 16.32     0.032 C 
HETATM   56  C42 RAP A 108       3.732   7.766  19.204  1.00 14.05     0.003 C 
BRANCH  53  57
HETATM   57  O12 RAP A 108       2.578   6.525  15.353  1.00 30.82    -0.352 OA
HETATM   58  C52 RAP A 108       2.884   7.758  14.799  1.00 28.14     0.174 C 
ENDBRANCH  53  57
BRANCH  54  59
HETATM   59  O13 RAP A 108       5.113   5.549  16.494  1.00 28.84    -0.382 OA
HETATM   60  HO3 RAP A 108       4.574   5.044  15.872  1.00 13.32     0.210 HD
ENDBRANCH  54  59
ENDBRANCH  50  51
ENDBRANCH  48  50
ENDBRANCH  41  48
BRANCH  35  61
HETATM   61  O10 RAP A 108       0.148  13.203  17.926  1.00 12.16    -0.378 OA
HETATM   62  HO1 RAP A 108      -0.041  12.532  17.254  1.00 13.32     0.211 HD
ENDBRANCH  35  61
BRANCH  16  63
HETATM   63  O6  RAP A 108       0.053   5.893  27.744  1.00 14.16    -0.358 OA
HETATM   64  HO6 RAP A 108       0.771   6.438  28.080  1.00 13.32     0.213 HD
ENDBRANCH  16  63
BRANCH  34  65
HETATM   65  O9  RAP A 108       2.679  14.205  16.769  1.00 23.09    -0.344 OA
HETATM   66  C51 RAP A 108       3.444  13.086  16.487  1.00 19.04     0.175 C 
ENDBRANCH  34  65
BRANCH  23  67
HETATM   67  O7  RAP A 108       2.256  10.726  27.870  1.00 20.17    -0.350 OA
HETATM   68  C50 RAP A 108       3.596  10.581  28.218  1.00 28.36     0.175 C 
ENDBRANCH  23  67
TORSDOF 9
ENDMDL
MODEL 7
REMARK VINA RESULT:    -7.026      3.073      9.472
REMARK INTER + INTRA:         -11.303
REMARK INTER:                  -8.970
REMARK INTRA:                  -2.333
REMARK UNBOUND:                -1.196
REMARK  9 active torsions:
REMARK  status: ('A' for Active; 'I' for Inactive)
REMARK    1  A    between atoms: O6_12  and  C10_19 
REMARK    2  A    between atoms: O7_14  and  C16_29 
REMARK    3  A    between atoms: O9_18  and  C27_40 
REMARK    4  A    between atoms: O10_20  and  C28_41 
REMARK    5  A    between atoms: O12_24  and  C39_52 
REMARK    6  A    between atoms: O13_26  and  C40_53 
REMARK    7  A    between atoms: C34_47  and  C35_48 
REMARK    8  A    between atoms: C35_48  and  C36_49 
REMARK    9  A    between atoms: C36_49  and  C37_50 
ROOT
HETATM    1  C1  RAP A 108      -1.718  14.634  18.736  1.00  5.98     0.292 C 
HETATM    2  O1  RAP A 108      -0.351  14.513  18.368  1.00  9.08    -0.302 OA
HETATM    3  C2  RAP A 108      -2.500  15.933  18.538  1.00  6.42     0.171 C 
HETATM    4  O2  RAP A 108      -2.266  13.664  19.255  1.00 14.08    -0.262 OA
HETATM    5  C3  RAP A 108      -3.884  15.659  17.969  1.00  5.50     0.033 C 
HETATM    6  O3  RAP A 108      -1.293  18.143  19.454  1.00 10.38    -0.264 OA
HETATM    7  C4  RAP A 108      -3.877  15.305  16.489  1.00  4.49     0.004 C 
HETATM    8  O4  RAP A 108      -1.259  19.937  17.019  1.00 10.60    -0.281 OA
HETATM    9  C5  RAP A 108      -3.164  16.417  15.740  1.00  4.19     0.024 C 
HETATM   10  O5  RAP A 108       1.047  17.965  16.125  1.00 10.76    -0.332 OA
HETATM   11  C6  RAP A 108      -1.769  16.597  16.253  1.00  3.25     0.105 C 
HETATM   12  N7  RAP A 108      -1.857  16.936  17.683  1.00  8.46    -0.307 N 
HETATM   13  C8  RAP A 108      -1.237  17.995  18.226  1.00 10.06     0.297 C 
HETATM   14  O8  RAP A 108       1.730   5.589  15.750  1.00 18.31    -0.293 OA
HETATM   15  C9  RAP A 108      -0.594  18.988  17.454  1.00 11.13     0.279 C 
HETATM   16  C10 RAP A 108       0.912  18.938  17.135  1.00 16.59     0.246 C 
HETATM   17  C11 RAP A 108       1.804  18.525  18.377  1.00 10.40     0.059 C 
HETATM   18  O11 RAP A 108      -0.869  12.894  15.939  1.00  9.49    -0.296 OA
HETATM   19  C12 RAP A 108       3.247  18.184  17.941  1.00 12.17     0.008 C 
HETATM   20  C13 RAP A 108       3.234  17.215  16.767  1.00 12.80     0.030 C 
HETATM   21  C14 RAP A 108       2.300  17.640  15.638  1.00 10.37     0.121 C 
HETATM   22  C15 RAP A 108       2.061  16.468  14.702  1.00  5.94     0.064 C 
HETATM   23  C16 RAP A 108       3.240  16.028  13.842  1.00  9.79     0.136 C 
HETATM   24  C17 RAP A 108       2.882  14.833  12.986  1.00 15.52    -0.017 C 
HETATM   25  C18 RAP A 108       3.487  13.678  13.228  1.00 14.38    -0.006 C 
HETATM   26  C19 RAP A 108       3.226  12.426  12.504  1.00  9.73    -0.001 C 
HETATM   27  C20 RAP A 108       3.935  11.347  12.805  1.00 10.26    -0.000 C 
HETATM   28  C21 RAP A 108       3.646  10.043  12.181  1.00 11.40    -0.005 C 
HETATM   29  C22 RAP A 108       4.200   8.926  12.614  1.00 17.77    -0.026 C 
HETATM   30  C23 RAP A 108       3.860   7.549  12.087  1.00 15.64     0.022 C 
HETATM   31  C24 RAP A 108       3.425   6.721  13.284  1.00 14.68     0.012 C 
HETATM   32  C25 RAP A 108       2.330   7.294  14.165  1.00 11.87     0.061 C 
HETATM   33  C26 RAP A 108       2.339   6.634  15.537  1.00 11.65     0.180 C 
HETATM   34  C27 RAP A 108       3.130   7.342  16.632  1.00  8.13     0.203 C 
HETATM   35  C28 RAP A 108       2.331   8.481  17.343  1.00 10.80     0.163 C 
HETATM   36  C29 RAP A 108       2.329   9.811  16.564  1.00  9.60    -0.019 C 
HETATM   37  C30 RAP A 108       1.241  10.304  15.973  1.00  8.55    -0.025 C 
HETATM   38  C31 RAP A 108       1.055  11.619  15.203  1.00  8.43     0.079 C 
HETATM   39  C32 RAP A 108       0.328  12.633  16.087  1.00 10.69     0.157 C 
HETATM   40  C33 RAP A 108       1.163  13.257  17.200  1.00  6.51     0.095 C 
HETATM   41  C34 RAP A 108       0.400  13.357  18.505  1.00  9.62     0.132 C 
HETATM   42  C43 RAP A 108       1.813  19.543  19.556  1.00 11.25     0.005 C 
HETATM   43  C44 RAP A 108       1.849  15.092  11.874  1.00 14.40     0.029 C 
HETATM   44  C45 RAP A 108       5.060   6.915  11.400  1.00  9.23     0.005 C 
HETATM   45  C46 RAP A 108       0.953   7.170  13.508  1.00 15.99     0.008 C 
HETATM   46  C47 RAP A 108       3.676  10.506  16.513  1.00 14.60     0.029 C 
HETATM   47  C48 RAP A 108       0.224  11.342  13.941  1.00  9.37     0.013 C 
ENDROOT
BRANCH  41  48
HETATM   48  C35 RAP A 108       1.200  13.527  19.812  1.00  9.58     0.028 C 
HETATM   49  C49 RAP A 108       2.601  14.006  19.564  1.00  8.29     0.003 C 
BRANCH  48  50
HETATM   50  C36 RAP A 108       1.212  12.249  20.650  1.00 10.31     0.003 C 
BRANCH  50  51
HETATM   51  C37 RAP A 108       0.063  11.260  20.437  1.00 22.90     0.003 C 
HETATM   52  C38 RAP A 108       0.588   9.821  20.512  1.00 14.17     0.032 C 
HETATM   53  C39 RAP A 108      -0.484   8.777  20.193  1.00 34.20     0.142 C 
HETATM   54  C40 RAP A 108      -1.742   9.007  21.098  1.00 38.24     0.138 C 
HETATM   55  C41 RAP A 108      -2.261  10.459  21.061  1.00 16.32     0.032 C 
HETATM   56  C42 RAP A 108      -1.140  11.444  21.361  1.00 14.05     0.003 C 
BRANCH  53  57
HETATM   57  O12 RAP A 108       0.089   7.523  20.460  1.00 30.82    -0.352 OA
HETATM   58  C52 RAP A 108       1.417   7.516  20.860  1.00 28.14     0.174 C 
ENDBRANCH  53  57
BRANCH  54  59
HETATM   59  O13 RAP A 108      -2.785   8.129  20.680  1.00 28.84    -0.382 OA
HETATM   60  HO3 RAP A 108      -3.643   8.535  20.856  1.00 13.32     0.210 HD
ENDBRANCH  54  59
ENDBRANCH  50  51
ENDBRANCH  48  50
ENDBRANCH  41  48
BRANCH  35  61
HETATM   61  O10 RAP A 108       0.986   8.019  17.520  1.00 12.16    -0.378 OA
HETATM   62  HO1 RAP A 108       0.963   7.097  17.815  1.00 13.32     0.211 HD
ENDBRANCH  35  61
BRANCH  16  63
HETATM   63  O6  RAP A 108       1.328  20.226  16.673  1.00 14.16    -0.358 OA
HETATM   64  HO6 RAP A 108       0.548  20.784  16.605  1.00 13.32     0.213 HD
ENDBRANCH  16  63
BRANCH  34  65
HETATM   65  O9  RAP A 108       3.463   6.405  17.622  1.00 23.09    -0.344 OA
HETATM   66  C51 RAP A 108       4.536   6.744  18.429  1.00 19.04     0.175 C 
ENDBRANCH  34  65
BRANCH  23  67
HETATM   67  O7  RAP A 108       3.590  17.099  13.021  1.00 20.17    -0.350 OA
HETATM   68  C50 RAP A 108       4.951  17.278  12.791  1.00 28.36     0.175 C 
ENDBRANCH  23  67
TORSDOF 9
ENDMDL
MODEL 8
REMARK VINA RESULT:    -6.977     15.435     20.268
REMARK INTER + INTRA:         -11.231
REMARK INTER:                  -8.959
REMARK INTRA:                  -2.273
REMARK UNBOUND:                -1.196
REMARK  9 active torsions:
REMARK  status: ('A' for Active; 'I' for Inactive)
REMARK    1  A    between atoms: O6_12  and  C10_19 
REMARK    2  A    between atoms: O7_14  and  C16_29 
REMARK    3  A    between atoms: O9_18  and  C27_40 
REMARK    4  A    between atoms: O10_20  and  C28_41 
REMARK    5  A    between atoms: O12_24  and  C39_52 
REMARK    6  A    between atoms: O13_26  and  C40_53 
REMARK    7  A    between atoms: C34_47  and  C35_48 
REMARK    8  A    between atoms: C35_48  and  C36_49 
REMARK    9  A    between atoms: C36_49  and  C37_50 
ROOT
HETATM    1  C1  RAP A 108      11.417  -3.836  29.274  1.00  5.98     0.292 C 
HETATM    2  O1  RAP A 108      11.512  -2.710  28.413  1.00  9.08    -0.302 OA
HETATM    3  C2  RAP A 108      12.638  -4.670  29.659  1.00  6.42     0.171 C 
HETATM    4  O2  RAP A 108      10.304  -4.154  29.690  1.00 14.08    -0.262 OA
HETATM    5  C3  RAP A 108      12.631  -4.999  31.145  1.00  5.50     0.033 C 
HETATM    6  O3  RAP A 108      14.188  -5.439  27.614  1.00 10.38    -0.264 OA
HETATM    7  C4  RAP A 108      13.013  -3.823  32.033  1.00  4.49     0.004 C 
HETATM    8  O4  RAP A 108      16.914  -4.410  28.423  1.00 10.60    -0.281 OA
HETATM    9  C5  RAP A 108      14.362  -3.301  31.572  1.00  4.19     0.024 C 
HETATM   10  O5  RAP A 108      15.645  -1.636  27.590  1.00 10.76    -0.332 OA
HETATM   11  C6  RAP A 108      14.312  -2.890  30.133  1.00  3.25     0.105 C 
HETATM   12  N7  RAP A 108      13.939  -4.074  29.341  1.00  8.46    -0.307 N 
HETATM   13  C8  RAP A 108      14.634  -4.490  28.271  1.00 10.06     0.297 C 
HETATM   14  O8  RAP A 108       4.908   3.822  30.540  1.00 18.31    -0.293 OA
HETATM   15  C9  RAP A 108      15.887  -3.947  27.910  1.00 11.13     0.279 C 
HETATM   16  C10 RAP A 108      16.026  -2.799  26.893  1.00 16.59     0.246 C 
HETATM   17  C11 RAP A 108      15.101  -2.971  25.620  1.00 10.40     0.059 C 
HETATM   18  O11 RAP A 108      11.211  -0.698  30.570  1.00  9.49    -0.296 OA
HETATM   19  C12 RAP A 108      15.036  -1.666  24.794  1.00 12.17     0.008 C 
HETATM   20  C13 RAP A 108      14.731  -0.478  25.697  1.00 12.80     0.030 C 
HETATM   21  C14 RAP A 108      15.614  -0.416  26.939  1.00 10.37     0.121 C 
HETATM   22  C15 RAP A 108      15.013   0.548  27.947  1.00  5.94     0.064 C 
HETATM   23  C16 RAP A 108      15.054   2.028  27.587  1.00  9.79     0.136 C 
HETATM   24  C17 RAP A 108      14.392   2.874  28.653  1.00 15.52    -0.017 C 
HETATM   25  C18 RAP A 108      13.272   3.515  28.346  1.00 14.38    -0.006 C 
HETATM   26  C19 RAP A 108      12.500   4.348  29.280  1.00  9.73    -0.001 C 
HETATM   27  C20 RAP A 108      11.423   4.982  28.838  1.00 10.26    -0.000 C 
HETATM   28  C21 RAP A 108      10.557   5.748  29.753  1.00 11.40    -0.005 C 
HETATM   29  C22 RAP A 108       9.381   6.210  29.373  1.00 17.77    -0.026 C 
HETATM   30  C23 RAP A 108       8.404   6.906  30.296  1.00 15.64     0.022 C 
HETATM   31  C24 RAP A 108       7.102   6.128  30.218  1.00 14.68     0.012 C 
HETATM   32  C25 RAP A 108       7.170   4.632  30.463  1.00 11.87     0.061 C 
HETATM   33  C26 RAP A 108       5.944   3.933  29.891  1.00 11.65     0.180 C 
HETATM   34  C27 RAP A 108       6.074   3.370  28.479  1.00  8.13     0.203 C 
HETATM   35  C28 RAP A 108       6.728   1.952  28.431  1.00 10.80     0.163 C 
HETATM   36  C29 RAP A 108       8.267   1.981  28.499  1.00  9.60    -0.019 C 
HETATM   37  C30 RAP A 108       8.955   1.549  29.556  1.00  8.55    -0.025 C 
HETATM   38  C31 RAP A 108      10.474   1.467  29.770  1.00  8.43     0.079 C 
HETATM   39  C32 RAP A 108      10.937   0.020  29.603  1.00 10.69     0.157 C 
HETATM   40  C33 RAP A 108      10.986  -0.497  28.170  1.00  6.51     0.095 C 
HETATM   41  C34 RAP A 108      10.445  -1.907  28.047  1.00  9.62     0.132 C 
HETATM   42  C43 RAP A 108      15.447  -4.183  24.705  1.00 11.25     0.005 C 
HETATM   43  C44 RAP A 108      15.118   2.929  30.009  1.00 14.40     0.029 C 
HETATM   44  C45 RAP A 108       8.193   8.354  29.877  1.00  9.23     0.005 C 
HETATM   45  C46 RAP A 108       7.337   4.311  31.950  1.00 15.99     0.008 C 
HETATM   46  C47 RAP A 108       8.936   2.559  27.266  1.00 14.60     0.029 C 
HETATM   47  C48 RAP A 108      10.802   1.956  31.189  1.00  9.37     0.013 C 
ENDROOT
BRANCH  41  48
HETATM   48  C35 RAP A 108      10.000  -2.405  26.658  1.00  9.58     0.028 C 
HETATM   49  C49 RAP A 108       8.603  -2.954  26.671  1.00  8.29     0.003 C 
BRANCH  48  50
HETATM   50  C36 RAP A 108      10.972  -3.431  26.076  1.00 10.31     0.003 C 
BRANCH  50  51
HETATM   51  C37 RAP A 108      11.543  -3.146  24.685  1.00 22.90     0.003 C 
HETATM   52  C38 RAP A 108      11.866  -4.463  23.970  1.00 14.17     0.032 C 
HETATM   53  C39 RAP A 108      12.550  -4.256  22.617  1.00 34.20     0.142 C 
HETATM   54  C40 RAP A 108      11.701  -3.281  21.730  1.00 38.24     0.138 C 
HETATM   55  C41 RAP A 108      11.339  -1.966  22.449  1.00 16.32     0.032 C 
HETATM   56  C42 RAP A 108      10.687  -2.245  23.796  1.00 14.05     0.003 C 
BRANCH  53  57
HETATM   57  O12 RAP A 108      12.632  -5.522  22.014  1.00 30.82    -0.352 OA
HETATM   58  C52 RAP A 108      13.895  -6.085  21.914  1.00 28.14     0.174 C 
ENDBRANCH  53  57
BRANCH  54  59
HETATM   59  O13 RAP A 108      12.429  -2.978  20.542  1.00 28.84    -0.382 OA
HETATM   60  HO3 RAP A 108      11.819  -2.680  19.855  1.00 13.32     0.210 HD
ENDBRANCH  54  59
ENDBRANCH  50  51
ENDBRANCH  48  50
ENDBRANCH  41  48
BRANCH  35  61
HETATM   61  O10 RAP A 108       6.207   1.198  29.532  1.00 12.16    -0.378 OA
HETATM   62  HO1 RAP A 108       6.732   0.401  29.698  1.00 13.32     0.211 HD
ENDBRANCH  35  61
BRANCH  16  63
HETATM   63  O6  RAP A 108      17.390  -2.723  26.468  1.00 14.16    -0.358 OA
HETATM   64  HO6 RAP A 108      17.846  -2.098  27.039  1.00 13.32     0.213 HD
ENDBRANCH  16  63
BRANCH  34  65
HETATM   65  O9  RAP A 108       4.790   3.241  27.928  1.00 23.09    -0.344 OA
HETATM   66  C51 RAP A 108       4.744   3.051  26.557  1.00 19.04     0.175 C 
ENDBRANCH  34  65
BRANCH  23  67
HETATM   67  O7  RAP A 108      16.392   2.399  27.466  1.00 20.17    -0.350 OA
HETATM   68  C50 RAP A 108      16.758   3.000  26.265  1.00 28.36     0.175 C 
ENDBRANCH  23  67
TORSDOF 9
ENDMDL
MODEL 9
REMARK VINA RESULT:    -6.900      3.353      8.832
REMARK INTER + INTRA:         -11.121
REMARK INTER:                  -9.443
REMARK INTRA:                  -1.678
REMARK UNBOUND:                -1.196
REMARK  9 active torsions:
REMARK  status: ('A' for Active; 'I' for Inactive)
REMARK    1  A    between atoms: O6_12  and  C10_19 
REMARK    2  A    between atoms: O7_14  and  C16_29 
REMARK    3  A    between atoms: O9_18  and  C27_40 
REMARK    4  A    between atoms: O10_20  and  C28_41 
REMARK    5  A    between atoms: O12_24  and  C39_52 
REMARK    6  A    between atoms: O13_26  and  C40_53 
REMARK    7  A    between atoms: C34_47  and  C35_48 
REMARK    8  A    between atoms: C35_48  and  C36_49 
REMARK    9  A    between atoms: C36_49  and  C37_50 
ROOT
HETATM    1  C1  RAP A 108       2.090  12.146  12.294  1.00  5.98     0.292 C 
HETATM    2  O1  RAP A 108       3.027  12.015  13.355  1.00  9.08    -0.302 OA
HETATM    3  C2  RAP A 108       0.605  12.401  12.549  1.00  6.42     0.171 C 
HETATM    4  O2  RAP A 108       2.500  12.018  11.142  1.00 14.08    -0.262 OA
HETATM    5  C3  RAP A 108       0.061  13.463  11.605  1.00  5.50     0.033 C 
HETATM    6  O3  RAP A 108      -0.542  10.776  14.344  1.00 10.38    -0.264 OA
HETATM    7  C4  RAP A 108       0.483  14.879  11.970  1.00  4.49     0.004 C 
HETATM    8  O4  RAP A 108      -1.743  12.720  16.326  1.00 10.60    -0.281 OA
HETATM    9  C5  RAP A 108       0.077  15.137  13.410  1.00  4.19     0.024 C 
HETATM   10  O5  RAP A 108       1.279  13.032  17.205  1.00 10.76    -0.332 OA
HETATM   11  C6  RAP A 108       0.708  14.137  14.329  1.00  3.25     0.105 C 
HETATM   12  N7  RAP A 108       0.255  12.799  13.916  1.00  8.46    -0.307 N 
HETATM   13  C8  RAP A 108      -0.279  11.910  14.767  1.00 10.06     0.297 C 
HETATM   14  O8  RAP A 108      11.654  15.098  10.734  1.00 18.31    -0.293 OA
HETATM   15  C9  RAP A 108      -0.628  12.232  16.098  1.00 11.13     0.279 C 
HETATM   16  C10 RAP A 108       0.328  11.996  17.281  1.00 16.59     0.246 C 
HETATM   17  C11 RAP A 108       1.072  10.600  17.218  1.00 10.40     0.059 C 
HETATM   18  O11 RAP A 108       4.239  14.693  12.974  1.00  9.49    -0.296 OA
HETATM   19  C12 RAP A 108       2.236  10.540  18.234  1.00 12.17     0.008 C 
HETATM   20  C13 RAP A 108       3.112  11.779  18.115  1.00 12.80     0.030 C 
HETATM   21  C14 RAP A 108       2.322  13.084  18.111  1.00 10.37     0.121 C 
HETATM   22  C15 RAP A 108       3.207  14.217  17.622  1.00  5.94     0.064 C 
HETATM   23  C16 RAP A 108       4.332  14.657  18.551  1.00  9.79     0.136 C 
HETATM   24  C17 RAP A 108       5.159  15.763  17.930  1.00 15.52    -0.017 C 
HETATM   25  C18 RAP A 108       6.421  15.507  17.614  1.00 14.38    -0.006 C 
HETATM   26  C19 RAP A 108       7.338  16.466  16.981  1.00  9.73    -0.001 C 
HETATM   27  C20 RAP A 108       8.595  16.106  16.761  1.00 10.26    -0.000 C 
HETATM   28  C21 RAP A 108       9.528  16.991  16.039  1.00 11.40    -0.005 C 
HETATM   29  C22 RAP A 108      10.712  16.571  15.635  1.00 17.77    -0.026 C 
HETATM   30  C23 RAP A 108      11.665  17.397  14.798  1.00 15.64     0.022 C 
HETATM   31  C24 RAP A 108      11.966  16.582  13.552  1.00 14.68     0.012 C 
HETATM   32  C25 RAP A 108      10.782  16.071  12.752  1.00 11.87     0.061 C 
HETATM   33  C26 RAP A 108      11.193  14.910  11.858  1.00 11.65     0.180 C 
HETATM   34  C27 RAP A 108      10.992  13.507  12.421  1.00  8.13     0.203 C 
HETATM   35  C28 RAP A 108       9.542  12.958  12.225  1.00 10.80     0.163 C 
HETATM   36  C29 RAP A 108       8.543  13.464  13.284  1.00  9.60    -0.019 C 
HETATM   37  C30 RAP A 108       7.560  14.319  13.003  1.00  8.55    -0.025 C 
HETATM   38  C31 RAP A 108       6.463  14.885  13.917  1.00  8.43     0.079 C 
HETATM   39  C32 RAP A 108       5.142  14.170  13.636  1.00 10.69     0.157 C 
HETATM   40  C33 RAP A 108       5.031  12.749  14.176  1.00  6.51     0.095 C 
HETATM   41  C34 RAP A 108       4.385  11.804  13.184  1.00  9.62     0.132 C 
HETATM   42  C43 RAP A 108       0.154   9.350  17.361  1.00 11.25     0.005 C 
HETATM   43  C44 RAP A 108       4.443  17.114  17.753  1.00 14.40     0.029 C 
HETATM   44  C45 RAP A 108      12.944  17.701  15.565  1.00  9.23     0.005 C 
HETATM   45  C46 RAP A 108      10.129  17.188  11.933  1.00 15.99     0.008 C 
HETATM   46  C47 RAP A 108       8.783  12.919  14.679  1.00 14.60     0.029 C 
HETATM   47  C48 RAP A 108       6.310  16.388  13.635  1.00  9.37     0.013 C 
ENDROOT
BRANCH  41  48
HETATM   48  C35 RAP A 108       4.601  10.288  13.363  1.00  9.58     0.028 C 
HETATM   49  C49 RAP A 108       5.804   9.793  12.614  1.00  8.29     0.003 C 
BRANCH  48  50
HETATM   50  C36 RAP A 108       3.363   9.480  12.979  1.00 10.31     0.003 C 
BRANCH  50  51
HETATM   51  C37 RAP A 108       3.118   8.170  13.732  1.00 22.90     0.003 C 
HETATM   52  C38 RAP A 108       3.290   8.390  15.240  1.00 14.17     0.032 C 
HETATM   53  C39 RAP A 108       3.175   7.097  16.049  1.00 34.20     0.142 C 
HETATM   54  C40 RAP A 108       1.836   6.361  15.696  1.00 38.24     0.138 C 
HETATM   55  C41 RAP A 108       1.632   6.164  14.180  1.00 16.32     0.032 C 
HETATM   56  C42 RAP A 108       1.785   7.483  13.435  1.00 14.05     0.003 C 
BRANCH  53  57
HETATM   57  O12 RAP A 108       3.186   7.471  17.402  1.00 30.82    -0.352 OA
HETATM   58  C52 RAP A 108       4.325   7.155  18.127  1.00 28.14     0.174 C 
ENDBRANCH  53  57
BRANCH  54  59
HETATM   59  O13 RAP A 108       1.820   5.088  16.338  1.00 28.84    -0.382 OA
HETATM   60  HO3 RAP A 108       1.633   5.200  17.278  1.00 13.32     0.210 HD
ENDBRANCH  54  59
ENDBRANCH  50  51
ENDBRANCH  48  50
ENDBRANCH  41  48
BRANCH  35  61
HETATM   61  O10 RAP A 108       9.105  13.349  10.917  1.00 12.16    -0.378 OA
HETATM   62  HO1 RAP A 108       8.177  13.626  10.921  1.00 13.32     0.211 HD
ENDBRANCH  35  61
BRANCH  16  63
HETATM   63  O6  RAP A 108      -0.420  12.069  18.498  1.00 14.16    -0.358 OA
HETATM   64  HO6 RAP A 108      -0.464  12.991  18.766  1.00 13.32     0.213 HD
ENDBRANCH  16  63
BRANCH  34  65
HETATM   65  O9  RAP A 108      11.851  12.626  11.747  1.00 23.09    -0.344 OA
HETATM   66  C51 RAP A 108      13.003  12.274  12.431  1.00 19.04     0.175 C 
ENDBRANCH  34  65
BRANCH  23  67
HETATM   67  O7  RAP A 108       3.753  15.117  19.731  1.00 20.17    -0.350 OA
HETATM   68  C50 RAP A 108       4.275  14.603  20.915  1.00 28.36     0.175 C 
ENDBRANCH  23  67
TORSDOF 9
ENDMDL
