MODEL 1
REMARK VINA RESULT:    -6.041      0.000      0.000
REMARK INTER + INTRA:         -11.123
REMARK INTER:                  -8.690
REMARK INTRA:                  -2.433
REMARK UNBOUND:                -2.433
REMARK  9 active torsions:
REMARK  status: ('A' for Active; 'I' for Inactive)
REMARK    1  A    between atoms: O6_12  and  C10_19 
REMARK    2  A    between atoms: O7_14  and  C16_29 
REMARK    3  A    between atoms: O9_18  and  C27_40 
REMARK    4  A    between atoms: O10_20  and  C28_41 
REMARK    5  A    between atoms: O12_24  and  C39_52 
REMARK    6  A    between atoms: O13_26  and  C40_53 
REMARK    7  A    between atoms: C34_47  and  C35_48 
REMARK    8  A    between atoms: C35_48  and  C36_49 
REMARK    9  A    between atoms: C36_49  and  C37_50 
ROOT
HETATM    1  C1  RAP A 108      15.115  -1.548  -1.674  1.00  5.98     0.292 C 
HETATM    2  O1  RAP A 108      13.763  -1.816  -1.328  1.00  9.08    -0.302 OA
HETATM    3  C2  RAP A 108      16.232  -2.563  -1.430  1.00  6.42     0.171 C 
HETATM    4  O2  RAP A 108      15.382  -0.450  -2.156  1.00 14.08    -0.262 OA
HETATM    5  C3  RAP A 108      17.164  -2.652  -2.630  1.00  5.50     0.033 C 
HETATM    6  O3  RAP A 108      16.297  -3.620   1.031  1.00 10.38    -0.264 OA
HETATM    7  C4  RAP A 108      16.572  -3.415  -3.807  1.00  4.49     0.004 C 
HETATM    8  O4  RAP A 108      16.210  -6.592   0.479  1.00 10.60    -0.281 OA
HETATM    9  C5  RAP A 108      16.146  -4.786  -3.315  1.00  4.19     0.024 C 
HETATM   10  O5  RAP A 108      13.175  -5.958  -0.141  1.00 10.76    -0.332 OA
HETATM   11  C6  RAP A 108      15.152  -4.669  -2.201  1.00  3.25     0.105 C 
HETATM   12  N7  RAP A 108      15.792  -3.924  -1.105  1.00  8.46    -0.307 N 
HETATM   13  C8  RAP A 108      15.819  -4.362   0.163  1.00 10.06     0.297 C 
HETATM   14  O8  RAP A 108       7.754   2.670  -7.209  1.00 18.31    -0.293 OA
HETATM   15  C9  RAP A 108      15.400  -5.658   0.537  1.00 11.13     0.279 C 
HETATM   16  C10 RAP A 108      13.970  -5.955   1.022  1.00 16.59     0.246 C 
HETATM   17  C11 RAP A 108      13.411  -4.871   2.031  1.00 10.40     0.059 C 
HETATM   18  O11 RAP A 108      12.862  -2.279  -4.115  1.00  9.49    -0.296 OA
HETATM   19  C12 RAP A 108      11.888  -5.033   2.241  1.00 12.17     0.008 C 
HETATM   20  C13 RAP A 108      11.174  -5.140   0.901  1.00 12.80     0.030 C 
HETATM   21  C14 RAP A 108      11.809  -6.152  -0.047  1.00 10.37     0.121 C 
HETATM   22  C15 RAP A 108      11.286  -5.931  -1.456  1.00  5.94     0.064 C 
HETATM   23  C16 RAP A 108       9.828  -6.294  -1.710  1.00  9.79     0.136 C 
HETATM   24  C17 RAP A 108       9.426  -5.993  -3.138  1.00 15.52    -0.017 C 
HETATM   25  C18 RAP A 108       8.531  -5.038  -3.354  1.00 14.38    -0.006 C 
HETATM   26  C19 RAP A 108       8.063  -4.612  -4.680  1.00  9.73    -0.001 C 
HETATM   27  C20 RAP A 108       7.124  -3.680  -4.764  1.00 10.26    -0.000 C 
HETATM   28  C21 RAP A 108       6.691  -3.145  -6.068  1.00 11.40    -0.005 C 
HETATM   29  C22 RAP A 108       5.914  -2.083  -6.161  1.00 17.77    -0.026 C 
HETATM   30  C23 RAP A 108       5.527  -1.425  -7.467  1.00 15.64     0.022 C 
HETATM   31  C24 RAP A 108       5.955   0.029  -7.366  1.00 14.68     0.012 C 
HETATM   32  C25 RAP A 108       7.396   0.303  -6.980  1.00 11.87     0.061 C 
HETATM   33  C26 RAP A 108       7.555   1.723  -6.452  1.00 11.65     0.180 C 
HETATM   34  C27 RAP A 108       7.466   1.905  -4.941  1.00  8.13     0.203 C 
HETATM   35  C28 RAP A 108       8.813   1.631  -4.199  1.00 10.80     0.163 C 
HETATM   36  C29 RAP A 108       9.085   0.136  -3.945  1.00  9.60    -0.019 C 
HETATM   37  C30 RAP A 108      10.043  -0.545  -4.573  1.00  8.55    -0.025 C 
HETATM   38  C31 RAP A 108      10.472  -2.010  -4.411  1.00  8.43     0.079 C 
HETATM   39  C32 RAP A 108      11.761  -2.078  -3.592  1.00 10.69     0.157 C 
HETATM   40  C33 RAP A 108      11.608  -1.828  -2.096  1.00  6.51     0.095 C 
HETATM   41  C34 RAP A 108      12.708  -0.945  -1.545  1.00  9.62     0.132 C 
HETATM   42  C43 RAP A 108      14.148  -4.796   3.401  1.00 11.25     0.005 C 
HETATM   43  C44 RAP A 108      10.089  -6.866  -4.218  1.00 14.40     0.029 C 
HETATM   44  C45 RAP A 108       4.028  -1.530  -7.709  1.00  9.23     0.005 C 
HETATM   45  C46 RAP A 108       8.353   0.045  -8.148  1.00 15.99     0.008 C 
HETATM   46  C47 RAP A 108       8.157  -0.503  -2.929  1.00 14.60     0.029 C 
HETATM   47  C48 RAP A 108      10.709  -2.615  -5.803  1.00  9.37     0.013 C 
ENDROOT
BRANCH  41  48
HETATM   48  C35 RAP A 108      12.472  -0.228  -0.200  1.00  9.58     0.028 C 
HETATM   49  C49 RAP A 108      12.504  -1.178   0.963  1.00  8.29     0.003 C 
BRANCH  48  50
HETATM   50  C36 RAP A 108      11.174   0.577  -0.197  1.00 10.31     0.003 C 
BRANCH  50  51
HETATM   51  C37 RAP A 108      11.052   1.715  -1.213  1.00 22.90     0.003 C 
HETATM   52  C38 RAP A 108      10.074   2.777  -0.698  1.00 14.17     0.032 C 
HETATM   53  C39 RAP A 108       9.812   3.891  -1.714  1.00 34.20     0.142 C 
HETATM   54  C40 RAP A 108      11.170   4.506  -2.198  1.00 38.24     0.138 C 
HETATM   55  C41 RAP A 108      12.178   3.446  -2.686  1.00 16.32     0.032 C 
HETATM   56  C42 RAP A 108      12.372   2.357  -1.640  1.00 14.05     0.003 C 
BRANCH  53  57
HETATM   57  O12 RAP A 108       9.042   4.861  -1.052  1.00 30.82    -0.352 OA
HETATM   58  C52 RAP A 108       9.654   5.538  -0.008  1.00 28.14     0.174 C 
ENDBRANCH  53  57
BRANCH  54  59
HETATM   59  O13 RAP A 108      10.915   5.429  -3.255  1.00 28.84    -0.382 OA
HETATM   60  HO3 RAP A 108      10.749   4.946  -4.075  1.00 13.32     0.210 HD
ENDBRANCH  54  59
ENDBRANCH  50  51
ENDBRANCH  48  50
ENDBRANCH  41  48
BRANCH  35  61
HETATM   61  O10 RAP A 108       9.866   2.188  -4.996  1.00 12.16    -0.378 OA
HETATM   62  HO1 RAP A 108       9.629   2.208  -5.935  1.00 13.32     0.211 HD
ENDBRANCH  35  61
BRANCH  16  63
HETATM   63  O6  RAP A 108      13.956  -7.234   1.661  1.00 14.16    -0.358 OA
HETATM   64  HO6 RAP A 108      13.814  -7.904   0.986  1.00 13.32     0.213 HD
ENDBRANCH  16  63
BRANCH  34  65
HETATM   65  O9  RAP A 108       7.119   3.237  -4.669  1.00 23.09    -0.344 OA
HETATM   66  C51 RAP A 108       5.777   3.467  -4.420  1.00 19.04     0.175 C 
ENDBRANCH  34  65
BRANCH  23  67
HETATM   67  O7  RAP A 108       9.680  -7.658  -1.465  1.00 20.17    -0.350 OA
HETATM   68  C50 RAP A 108       8.513  -8.043  -0.811  1.00 28.36     0.175 C 
ENDBRANCH  23  67
TORSDOF 9
ENDMDL
MODEL 2
REMARK VINA RESULT:    -6.032      2.697      7.220
REMARK INTER + INTRA:         -11.110
REMARK INTER:                  -8.304
REMARK INTRA:                  -2.806
REMARK UNBOUND:                -2.433
REMARK  9 active torsions:
REMARK  status: ('A' for Active; 'I' for Inactive)
REMARK    1  A    between atoms: O6_12  and  C10_19 
REMARK    2  A    between atoms: O7_14  and  C16_29 
REMARK    3  A    between atoms: O9_18  and  C27_40 
REMARK    4  A    between atoms: O10_20  and  C28_41 
REMARK    5  A    between atoms: O12_24  and  C39_52 
REMARK    6  A    between atoms: O13_26  and  C40_53 
REMARK    7  A    between atoms: C34_47  and  C35_48 
REMARK    8  A    between atoms: C35_48  and  C36_49 
REMARK    9  A    between atoms: C36_49  and  C37_50 
ROOT
HETATM    1  C1  RAP A 108      13.538  -3.287  -0.848  1.00  5.98     0.292 C 
HETATM    2  O1  RAP A 108      13.413  -2.248  -1.810  1.00  9.08    -0.302 OA
HETATM    3  C2  RAP A 108      14.198  -3.059   0.512  1.00  6.42     0.171 C 
HETATM    4  O2  RAP A 108      13.124  -4.405  -1.146  1.00 14.08    -0.262 OA
HETATM    5  C3  RAP A 108      13.395  -3.711   1.628  1.00  5.50     0.033 C 
HETATM    6  O3  RAP A 108      16.581  -1.837   0.434  1.00 10.38    -0.264 OA
HETATM    7  C4  RAP A 108      12.126  -2.954   1.990  1.00  4.49     0.004 C 
HETATM    8  O4  RAP A 108      16.177   0.523   2.282  1.00 10.60    -0.281 OA
HETATM    9  C5  RAP A 108      12.508  -1.524   2.326  1.00  4.19     0.024 C 
HETATM   10  O5  RAP A 108      14.527   1.626  -0.180  1.00 10.76    -0.332 OA
HETATM   11  C6  RAP A 108      13.207  -0.873   1.173  1.00  3.25     0.105 C 
HETATM   12  N7  RAP A 108      14.419  -1.657   0.883  1.00  8.46    -0.307 N 
HETATM   13  C8  RAP A 108      15.639  -1.109   0.775  1.00 10.06     0.297 C 
HETATM   14  O8  RAP A 108       5.622  -3.440  -7.166  1.00 18.31    -0.293 OA
HETATM   15  C9  RAP A 108      15.910   0.236   1.108  1.00 11.13     0.279 C 
HETATM   16  C10 RAP A 108      15.890   1.365   0.062  1.00 16.59     0.246 C 
HETATM   17  C11 RAP A 108      16.594   0.971  -1.301  1.00 10.40     0.059 C 
HETATM   18  O11 RAP A 108      10.513  -1.823  -1.368  1.00  9.49    -0.296 OA
HETATM   19  C12 RAP A 108      16.277   1.998  -2.412  1.00 12.17     0.008 C 
HETATM   20  C13 RAP A 108      14.781   2.268  -2.478  1.00 12.80     0.030 C 
HETATM   21  C14 RAP A 108      14.157   2.571  -1.119  1.00 10.37     0.121 C 
HETATM   22  C15 RAP A 108      12.646   2.457  -1.212  1.00  5.94     0.064 C 
HETATM   23  C16 RAP A 108      11.927   3.533  -2.016  1.00  9.79     0.136 C 
HETATM   24  C17 RAP A 108      10.434   3.282  -2.061  1.00 15.52    -0.017 C 
HETATM   25  C18 RAP A 108       9.879   2.982  -3.228  1.00 14.38    -0.006 C 
HETATM   26  C19 RAP A 108       8.454   2.684  -3.426  1.00  9.73    -0.001 C 
HETATM   27  C20 RAP A 108       8.009   2.448  -4.653  1.00 10.26    -0.000 C 
HETATM   28  C21 RAP A 108       6.611   2.047  -4.895  1.00 11.40    -0.005 C 
HETATM   29  C22 RAP A 108       6.207   1.613  -6.075  1.00 17.77    -0.026 C 
HETATM   30  C23 RAP A 108       4.816   1.086  -6.354  1.00 15.64     0.022 C 
HETATM   31  C24 RAP A 108       4.987  -0.314  -6.917  1.00 14.68     0.012 C 
HETATM   32  C25 RAP A 108       5.829  -1.288  -6.114  1.00 11.87     0.061 C 
HETATM   33  C26 RAP A 108       6.310  -2.438  -6.989  1.00 11.65     0.180 C 
HETATM   34  C27 RAP A 108       7.689  -2.286  -7.623  1.00  8.13     0.203 C 
HETATM   35  C28 RAP A 108       8.859  -2.705  -6.676  1.00 10.80     0.163 C 
HETATM   36  C29 RAP A 108       9.263  -1.609  -5.671  1.00  9.60    -0.019 C 
HETATM   37  C30 RAP A 108       9.034  -1.705  -4.362  1.00  8.55    -0.025 C 
HETATM   38  C31 RAP A 108       9.404  -0.737  -3.229  1.00  8.43     0.079 C 
HETATM   39  C32 RAP A 108      10.617  -1.276  -2.470  1.00 10.69     0.157 C 
HETATM   40  C33 RAP A 108      11.956  -1.146  -3.187  1.00  6.51     0.095 C 
HETATM   41  C34 RAP A 108      12.807  -2.392  -3.047  1.00  9.62     0.132 C 
HETATM   42  C43 RAP A 108      18.128   0.719  -1.208  1.00 11.25     0.005 C 
HETATM   43  C44 RAP A 108       9.690   3.435  -0.723  1.00 14.40     0.029 C 
HETATM   44  C45 RAP A 108       4.082   1.979  -7.343  1.00  9.23     0.005 C 
HETATM   45  C46 RAP A 108       5.073  -1.813  -4.891  1.00 15.99     0.008 C 
HETATM   46  C47 RAP A 108       9.930  -0.401  -6.301  1.00 14.60     0.029 C 
HETATM   47  C48 RAP A 108       8.208  -0.611  -2.273  1.00  9.37     0.013 C 
ENDROOT
BRANCH  41  48
HETATM   48  C35 RAP A 108      13.954  -2.615  -4.053  1.00  9.58     0.028 C 
HETATM   49  C49 RAP A 108      15.167  -1.795  -3.725  1.00  8.29     0.003 C 
BRANCH  48  50
HETATM   50  C36 RAP A 108      13.512  -2.363  -5.494  1.00 10.31     0.003 C 
BRANCH  50  51
HETATM   51  C37 RAP A 108      13.064  -3.576  -6.313  1.00 22.90     0.003 C 
HETATM   52  C38 RAP A 108      11.982  -4.353  -5.554  1.00 14.17     0.032 C 
HETATM   53  C39 RAP A 108      11.568  -5.645  -6.260  1.00 34.20     0.142 C 
HETATM   54  C40 RAP A 108      11.162  -5.340  -7.743  1.00 38.24     0.138 C 
HETATM   55  C41 RAP A 108      12.226  -4.528  -8.509  1.00 16.32     0.032 C 
HETATM   56  C42 RAP A 108      12.609  -3.272  -7.740  1.00 14.05     0.003 C 
BRANCH  53  57
HETATM   57  O12 RAP A 108      10.471  -6.156  -5.546  1.00 30.82    -0.352 OA
HETATM   58  C52 RAP A 108      10.545  -6.099  -4.163  1.00 28.14     0.174 C 
ENDBRANCH  53  57
BRANCH  54  59
HETATM   59  O13 RAP A 108      10.931  -6.570  -8.427  1.00 28.84    -0.382 OA
HETATM   60  HO3 RAP A 108      11.541  -7.243  -8.099  1.00 13.32     0.210 HD
ENDBRANCH  54  59
ENDBRANCH  50  51
ENDBRANCH  48  50
ENDBRANCH  41  48
BRANCH  35  61
HETATM   61  O10 RAP A 108       8.444  -3.882  -5.971  1.00 12.16    -0.378 OA
HETATM   62  HO1 RAP A 108       8.950  -4.005  -5.154  1.00 13.32     0.211 HD
ENDBRANCH  35  61
BRANCH  16  63
HETATM   63  O6  RAP A 108      16.547   2.512   0.609  1.00 14.16    -0.358 OA
HETATM   64  HO6 RAP A 108      16.118   2.733   1.440  1.00 13.32     0.213 HD
ENDBRANCH  16  63
BRANCH  34  65
HETATM   65  O9  RAP A 108       7.761  -3.122  -8.747  1.00 23.09    -0.344 OA
HETATM   66  C51 RAP A 108       8.901  -2.985  -9.521  1.00 19.04     0.175 C 
ENDBRANCH  34  65
BRANCH  23  67
HETATM   67  O7  RAP A 108      12.172   4.759  -1.401  1.00 20.17    -0.350 OA
HETATM   68  C50 RAP A 108      12.414   5.836  -2.249  1.00 28.36     0.175 C 
ENDBRANCH  23  67
TORSDOF 9
ENDMDL
MODEL 3
REMARK VINA RESULT:    -5.962      9.409     15.612
REMARK INTER + INTRA:         -11.009
REMARK INTER:                  -8.560
REMARK INTRA:                  -2.449
REMARK UNBOUND:                -2.433
REMARK  9 active torsions:
REMARK  status: ('A' for Active; 'I' for Inactive)
REMARK    1  A    between atoms: O6_12  and  C10_19 
REMARK    2  A    between atoms: O7_14  and  C16_29 
REMARK    3  A    between atoms: O9_18  and  C27_40 
REMARK    4  A    between atoms: O10_20  and  C28_41 
REMARK    5  A    between atoms: O12_24  and  C39_52 
REMARK    6  A    between atoms: O13_26  and  C40_53 
REMARK    7  A    between atoms: C34_47  and  C35_48 
REMARK    8  A    between atoms: C35_48  and  C36_49 
REMARK    9  A    between atoms: C36_49  and  C37_50 
ROOT
HETATM    1  C1  RAP A 108       2.017  -8.219  -2.117  1.00  5.98     0.292 C 
HETATM    2  O1  RAP A 108       2.804  -9.389  -2.301  1.00  9.08    -0.302 OA
HETATM    3  C2  RAP A 108       0.976  -7.771  -3.143  1.00  6.42     0.171 C 
HETATM    4  O2  RAP A 108       2.215  -7.542  -1.111  1.00 14.08    -0.262 OA
HETATM    5  C3  RAP A 108      -0.311  -7.333  -2.461  1.00  5.50     0.033 C 
HETATM    6  O3  RAP A 108       1.833  -7.691  -5.680  1.00 10.38    -0.264 OA
HETATM    7  C4  RAP A 108      -1.153  -8.490  -1.943  1.00  4.49     0.004 C 
HETATM    8  O4  RAP A 108      -0.178  -9.435  -7.115  1.00 10.60    -0.281 OA
HETATM    9  C5  RAP A 108      -1.417  -9.438  -3.099  1.00  4.19     0.024 C 
HETATM   10  O5  RAP A 108       1.450 -11.746  -5.695  1.00 10.76    -0.332 OA
HETATM   11  C6  RAP A 108      -0.131  -9.933  -3.687  1.00  3.25     0.105 C 
HETATM   12  N7  RAP A 108       0.625  -8.763  -4.164  1.00  8.46    -0.307 N 
HETATM   13  C8  RAP A 108       1.132  -8.673  -5.403  1.00 10.06     0.297 C 
HETATM   14  O8  RAP A 108       5.049 -13.373   6.060  1.00 18.31    -0.293 OA
HETATM   15  C9  RAP A 108       0.836  -9.602  -6.425  1.00 11.13     0.279 C 
HETATM   16  C10 RAP A 108       1.733 -10.819  -6.717  1.00 16.59     0.246 C 
HETATM   17  C11 RAP A 108       3.279 -10.479  -6.697  1.00 10.40     0.059 C 
HETATM   18  O11 RAP A 108       1.319 -11.022  -0.321  1.00  9.49    -0.296 OA
HETATM   19  C12 RAP A 108       4.135 -11.766  -6.680  1.00 12.17     0.008 C 
HETATM   20  C13 RAP A 108       3.640 -12.721  -5.604  1.00 12.80     0.030 C 
HETATM   21  C14 RAP A 108       2.131 -12.948  -5.639  1.00 10.37     0.121 C 
HETATM   22  C15 RAP A 108       1.680 -13.592  -4.340  1.00  5.94     0.064 C 
HETATM   23  C16 RAP A 108       2.102 -15.038  -4.111  1.00  9.79     0.136 C 
HETATM   24  C17 RAP A 108       1.621 -15.546  -2.769  1.00 15.52    -0.017 C 
HETATM   25  C18 RAP A 108       2.525 -15.836  -1.842  1.00 14.38    -0.006 C 
HETATM   26  C19 RAP A 108       2.213 -16.310  -0.486  1.00  9.73    -0.001 C 
HETATM   27  C20 RAP A 108       3.208 -16.617   0.334  1.00 10.26    -0.000 C 
HETATM   28  C21 RAP A 108       2.954 -17.000   1.735  1.00 11.40    -0.005 C 
HETATM   29  C22 RAP A 108       3.933 -17.109   2.614  1.00 17.77    -0.026 C 
HETATM   30  C23 RAP A 108       3.723 -17.391   4.086  1.00 15.64     0.022 C 
HETATM   31  C24 RAP A 108       4.396 -16.261   4.846  1.00 14.68     0.012 C 
HETATM   32  C25 RAP A 108       4.012 -14.843   4.464  1.00 11.87     0.061 C 
HETATM   33  C26 RAP A 108       5.071 -13.852   4.928  1.00 11.65     0.180 C 
HETATM   34  C27 RAP A 108       6.149 -13.477   3.916  1.00  8.13     0.203 C 
HETATM   35  C28 RAP A 108       5.716 -12.338   2.938  1.00 10.80     0.163 C 
HETATM   36  C29 RAP A 108       4.859 -12.832   1.757  1.00  9.60    -0.019 C 
HETATM   37  C30 RAP A 108       3.564 -12.545   1.629  1.00  8.55    -0.025 C 
HETATM   38  C31 RAP A 108       2.584 -12.916   0.507  1.00  8.43     0.079 C 
HETATM   39  C32 RAP A 108       2.349 -11.700  -0.390  1.00 10.69     0.157 C 
HETATM   40  C33 RAP A 108       3.491 -11.346  -1.335  1.00  6.51     0.095 C 
HETATM   41  C34 RAP A 108       3.745  -9.854  -1.397  1.00  9.62     0.132 C 
HETATM   42  C43 RAP A 108       3.762  -9.513  -7.820  1.00 11.25     0.005 C 
HETATM   43  C44 RAP A 108       0.097 -15.708  -2.622  1.00 14.40     0.029 C 
HETATM   44  C45 RAP A 108       4.324 -18.734   4.476  1.00  9.23     0.005 C 
HETATM   45  C46 RAP A 108       2.633 -14.464   5.010  1.00 15.99     0.008 C 
HETATM   46  C47 RAP A 108       5.611 -13.689   0.756  1.00 14.60     0.029 C 
HETATM   47  C48 RAP A 108       1.254 -13.360   1.137  1.00  9.37     0.013 C 
ENDROOT
BRANCH  41  48
HETATM   48  C35 RAP A 108       5.109  -9.361  -1.921  1.00  9.58     0.028 C 
HETATM   49  C49 RAP A 108       5.199  -9.422  -3.419  1.00  8.29     0.003 C 
BRANCH  48  50
HETATM   50  C36 RAP A 108       6.276 -10.114  -1.284  1.00 10.31     0.003 C 
BRANCH  50  51
HETATM   51  C37 RAP A 108       6.789  -9.602   0.064  1.00 22.90     0.003 C 
HETATM   52  C38 RAP A 108       7.920 -10.504   0.572  1.00 14.17     0.032 C 
HETATM   53  C39 RAP A 108       8.405 -10.122   1.972  1.00 34.20     0.142 C 
HETATM   54  C40 RAP A 108       8.783  -8.601   2.012  1.00 38.24     0.138 C 
HETATM   55  C41 RAP A 108       7.668  -7.684   1.470  1.00 16.32     0.032 C 
HETATM   56  C42 RAP A 108       7.216  -8.135   0.089  1.00 14.05     0.003 C 
BRANCH  53  57
HETATM   57  O12 RAP A 108       9.535 -10.915   2.233  1.00 30.82    -0.352 OA
HETATM   58  C52 RAP A 108       9.503 -12.220   1.766  1.00 28.14     0.174 C 
ENDBRANCH  53  57
BRANCH  54  59
HETATM   59  O13 RAP A 108       9.081  -8.229   3.356  1.00 28.84    -0.382 OA
HETATM   60  HO3 RAP A 108       9.046  -7.268   3.443  1.00 13.32     0.210 HD
ENDBRANCH  54  59
ENDBRANCH  50  51
ENDBRANCH  48  50
ENDBRANCH  41  48
BRANCH  35  61
HETATM   61  O10 RAP A 108       4.983 -11.370   3.699  1.00 12.16    -0.378 OA
HETATM   62  HO1 RAP A 108       4.117 -11.711   3.969  1.00 13.32     0.211 HD
ENDBRANCH  35  61
BRANCH  16  63
HETATM   63  O6  RAP A 108       1.390 -11.345  -8.002  1.00 14.16    -0.358 OA
HETATM   64  HO6 RAP A 108       0.677 -11.980  -7.884  1.00 13.32     0.213 HD
ENDBRANCH  16  63
BRANCH  34  65
HETATM   65  O9  RAP A 108       7.273 -13.006   4.611  1.00 23.09    -0.344 OA
HETATM   66  C51 RAP A 108       8.267 -13.942   4.844  1.00 19.04     0.175 C 
ENDBRANCH  34  65
BRANCH  23  67
HETATM   67  O7  RAP A 108       1.542 -15.810  -5.127  1.00 20.17    -0.350 OA
HETATM   68  C50 RAP A 108       2.351 -16.812  -5.655  1.00 28.36     0.175 C 
ENDBRANCH  23  67
TORSDOF 9
ENDMDL
MODEL 4
REMARK VINA RESULT:    -5.956      2.852      6.942
REMARK INTER + INTRA:         -11.000
REMARK INTER:                  -8.259
REMARK INTRA:                  -2.742
REMARK UNBOUND:                -2.433
REMARK  9 active torsions:
REMARK  status: ('A' for Active; 'I' for Inactive)
REMARK    1  A    between atoms: O6_12  and  C10_19 
REMARK    2  A    between atoms: O7_14  and  C16_29 
REMARK    3  A    between atoms: O9_18  and  C27_40 
REMARK    4  A    between atoms: O10_20  and  C28_41 
REMARK    5  A    between atoms: O12_24  and  C39_52 
REMARK    6  A    between atoms: O13_26  and  C40_53 
REMARK    7  A    between atoms: C34_47  and  C35_48 
REMARK    8  A    between atoms: C35_48  and  C36_49 
REMARK    9  A    between atoms: C36_49  and  C37_50 
ROOT
HETATM    1  C1  RAP A 108      13.523  -3.299  -0.858  1.00  5.98     0.292 C 
HETATM    2  O1  RAP A 108      13.400  -2.261  -1.822  1.00  9.08    -0.302 OA
HETATM    3  C2  RAP A 108      14.174  -3.068   0.505  1.00  6.42     0.171 C 
HETATM    4  O2  RAP A 108      13.115  -4.419  -1.159  1.00 14.08    -0.262 OA
HETATM    5  C3  RAP A 108      13.367  -3.723   1.616  1.00  5.50     0.033 C 
HETATM    6  O3  RAP A 108      16.554  -1.839   0.441  1.00 10.38    -0.264 OA
HETATM    7  C4  RAP A 108      12.093  -2.970   1.970  1.00  4.49     0.004 C 
HETATM    8  O4  RAP A 108      16.131   0.521   2.285  1.00 10.60    -0.281 OA
HETATM    9  C5  RAP A 108      12.468  -1.538   2.308  1.00  4.19     0.024 C 
HETATM   10  O5  RAP A 108      14.492   1.617  -0.187  1.00 10.76    -0.332 OA
HETATM   11  C6  RAP A 108      13.172  -0.886   1.159  1.00  3.25     0.105 C 
HETATM   12  N7  RAP A 108      14.389  -1.666   0.876  1.00  8.46    -0.307 N 
HETATM   13  C8  RAP A 108      15.607  -1.114   0.775  1.00 10.06     0.297 C 
HETATM   14  O8  RAP A 108       5.644  -3.482  -7.223  1.00 18.31    -0.293 OA
HETATM   15  C9  RAP A 108      15.872   0.233   1.110  1.00 11.13     0.279 C 
HETATM   16  C10 RAP A 108      15.854   1.361   0.063  1.00 16.59     0.246 C 
HETATM   17  C11 RAP A 108      16.567   0.969  -1.296  1.00 10.40     0.059 C 
HETATM   18  O11 RAP A 108      10.496  -1.846  -1.397  1.00  9.49    -0.296 OA
HETATM   19  C12 RAP A 108      16.254   1.995  -2.409  1.00 12.17     0.008 C 
HETATM   20  C13 RAP A 108      14.756   2.259  -2.484  1.00 12.80     0.030 C 
HETATM   21  C14 RAP A 108      14.124   2.561  -1.129  1.00 10.37     0.121 C 
HETATM   22  C15 RAP A 108      12.614   2.441  -1.231  1.00  5.94     0.064 C 
HETATM   23  C16 RAP A 108      11.895   3.515  -2.039  1.00  9.79     0.136 C 
HETATM   24  C17 RAP A 108      10.404   3.259  -2.093  1.00 15.52    -0.017 C 
HETATM   25  C18 RAP A 108       9.857   2.956  -3.263  1.00 14.38    -0.006 C 
HETATM   26  C19 RAP A 108       8.434   2.654  -3.469  1.00  9.73    -0.001 C 
HETATM   27  C20 RAP A 108       7.997   2.416  -4.698  1.00 10.26    -0.000 C 
HETATM   28  C21 RAP A 108       6.602   2.010  -4.949  1.00 11.40    -0.005 C 
HETATM   29  C22 RAP A 108       6.206   1.574  -6.130  1.00 17.77    -0.026 C 
HETATM   30  C23 RAP A 108       4.819   1.042  -6.418  1.00 15.64     0.022 C 
HETATM   31  C24 RAP A 108       4.998  -0.358  -6.979  1.00 14.68     0.012 C 
HETATM   32  C25 RAP A 108       5.838  -1.328  -6.171  1.00 11.87     0.061 C 
HETATM   33  C26 RAP A 108       6.328  -2.477  -7.043  1.00 11.65     0.180 C 
HETATM   34  C27 RAP A 108       7.710  -2.321  -7.668  1.00  8.13     0.203 C 
HETATM   35  C28 RAP A 108       8.876  -2.736  -6.714  1.00 10.80     0.163 C 
HETATM   36  C29 RAP A 108       9.270  -1.638  -5.708  1.00  9.60    -0.019 C 
HETATM   37  C30 RAP A 108       9.034  -1.734  -4.400  1.00  8.55    -0.025 C 
HETATM   38  C31 RAP A 108       9.395  -0.764  -3.265  1.00  8.43     0.079 C 
HETATM   39  C32 RAP A 108      10.605  -1.299  -2.499  1.00 10.69     0.157 C 
HETATM   40  C33 RAP A 108      11.948  -1.165  -3.208  1.00  6.51     0.095 C 
HETATM   41  C34 RAP A 108      12.802  -2.407  -3.063  1.00  9.62     0.132 C 
HETATM   42  C43 RAP A 108      18.101   0.722  -1.193  1.00 11.25     0.005 C 
HETATM   43  C44 RAP A 108       9.651   3.410  -0.759  1.00 14.40     0.029 C 
HETATM   44  C45 RAP A 108       4.087   1.932  -7.412  1.00  9.23     0.005 C 
HETATM   45  C46 RAP A 108       5.077  -1.855  -4.951  1.00 15.99     0.008 C 
HETATM   46  C47 RAP A 108       9.937  -0.428  -6.334  1.00 14.60     0.029 C 
HETATM   47  C48 RAP A 108       8.192  -0.642  -2.316  1.00  9.37     0.013 C 
ENDROOT
BRANCH  41  48
HETATM   48  C35 RAP A 108      13.955  -2.628  -4.062  1.00  9.58     0.028 C 
HETATM   49  C49 RAP A 108      14.084  -4.066  -4.474  1.00  8.29     0.003 C 
BRANCH  48  50
HETATM   50  C36 RAP A 108      15.287  -2.103  -3.528  1.00 10.31     0.003 C 
BRANCH  50  51
HETATM   51  C37 RAP A 108      15.888  -0.878  -4.222  1.00 22.90     0.003 C 
HETATM   52  C38 RAP A 108      17.347  -1.152  -4.604  1.00 14.17     0.032 C 
HETATM   53  C39 RAP A 108      18.049   0.070  -5.197  1.00 34.20     0.142 C 
HETATM   54  C40 RAP A 108      17.211   0.642  -6.392  1.00 38.24     0.138 C 
HETATM   55  C41 RAP A 108      15.732   0.890  -6.033  1.00 16.32     0.032 C 
HETATM   56  C42 RAP A 108      15.104  -0.356  -5.425  1.00 14.05     0.003 C 
BRANCH  53  57
HETATM   57  O12 RAP A 108      19.305  -0.370  -5.646  1.00 30.82    -0.352 OA
HETATM   58  C52 RAP A 108      19.310  -1.392  -6.582  1.00 28.14     0.174 C 
ENDBRANCH  53  57
BRANCH  54  59
HETATM   59  O13 RAP A 108      17.796   1.867  -6.830  1.00 28.84    -0.382 OA
HETATM   60  HO3 RAP A 108      17.919   1.845  -7.787  1.00 13.32     0.210 HD
ENDBRANCH  54  59
ENDBRANCH  50  51
ENDBRANCH  48  50
ENDBRANCH  41  48
BRANCH  35  61
HETATM   61  O10 RAP A 108       8.461  -3.914  -6.011  1.00 12.16    -0.378 OA
HETATM   62  HO1 RAP A 108       8.695  -4.719  -6.497  1.00 13.32     0.211 HD
ENDBRANCH  35  61
BRANCH  16  63
HETATM   63  O6  RAP A 108      16.504   2.510   0.613  1.00 14.16    -0.358 OA
HETATM   64  HO6 RAP A 108      16.915   2.994  -0.109  1.00 13.32     0.213 HD
ENDBRANCH  16  63
BRANCH  34  65
HETATM   65  O9  RAP A 108       7.792  -3.157  -8.791  1.00 23.09    -0.344 OA
HETATM   66  C51 RAP A 108       9.002  -3.138  -9.464  1.00 19.04     0.175 C 
ENDBRANCH  34  65
BRANCH  23  67
HETATM   67  O7  RAP A 108      12.133   4.742  -1.423  1.00 20.17    -0.350 OA
HETATM   68  C50 RAP A 108      12.139   5.858  -2.255  1.00 28.36     0.175 C 
ENDBRANCH  23  67
TORSDOF 9
ENDMDL
MODEL 5
REMARK VINA RESULT:    -5.951      6.306     13.099
REMARK INTER + INTRA:         -10.994
REMARK INTER:                  -8.500
REMARK INTRA:                  -2.494
REMARK UNBOUND:                -2.433
REMARK  9 active torsions:
REMARK  status: ('A' for Active; 'I' for Inactive)
REMARK    1  A    between atoms: O6_12  and  C10_19 
REMARK    2  A    between atoms: O7_14  and  C16_29 
REMARK    3  A    between atoms: O9_18  and  C27_40 
REMARK    4  A    between atoms: O10_20  and  C28_41 
REMARK    5  A    between atoms: O12_24  and  C39_52 
REMARK    6  A    between atoms: O13_26  and  C40_53 
REMARK    7  A    between atoms: C34_47  and  C35_48 
REMARK    8  A    between atoms: C35_48  and  C36_49 
REMARK    9  A    between atoms: C36_49  and  C37_50 
ROOT
HETATM    1  C1  RAP A 108       2.685  -8.769  -0.763  1.00  5.98     0.292 C 
HETATM    2  O1  RAP A 108       3.974  -8.814  -1.360  1.00  9.08    -0.302 OA
HETATM    3  C2  RAP A 108       1.409  -9.027  -1.564  1.00  6.42     0.171 C 
HETATM    4  O2  RAP A 108       2.610  -8.482   0.430  1.00 14.08    -0.262 OA
HETATM    5  C3  RAP A 108       0.453  -9.928  -0.797  1.00  5.50     0.033 C 
HETATM    6  O3  RAP A 108       1.205  -7.660  -3.859  1.00 10.38    -0.264 OA
HETATM    7  C4  RAP A 108       0.873 -11.391  -0.778  1.00  4.49     0.004 C 
HETATM    8  O4  RAP A 108       0.746  -9.848  -5.896  1.00 10.60    -0.281 OA
HETATM    9  C5  RAP A 108       1.056 -11.848  -2.214  1.00  4.19     0.024 C 
HETATM   10  O5  RAP A 108       3.833 -10.349  -5.426  1.00 10.76    -0.332 OA
HETATM   11  C6  RAP A 108       2.077 -11.008  -2.916  1.00  3.25     0.105 C 
HETATM   12  N7  RAP A 108       1.604  -9.614  -2.895  1.00  8.46    -0.307 N 
HETATM   13  C8  RAP A 108       1.525  -8.849  -3.994  1.00 10.06     0.297 C 
HETATM   14  O8  RAP A 108      10.570 -11.659   4.903  1.00 18.31    -0.293 OA
HETATM   15  C9  RAP A 108       1.711  -9.356  -5.299  1.00 11.13     0.279 C 
HETATM   16  C10 RAP A 108       3.075  -9.316  -6.011  1.00 16.59     0.246 C 
HETATM   17  C11 RAP A 108       3.840  -7.941  -5.828  1.00 10.40     0.059 C 
HETATM   18  O11 RAP A 108       4.720 -11.432  -0.186  1.00  9.49    -0.296 OA
HETATM   19  C12 RAP A 108       5.314  -8.055  -6.283  1.00 12.17     0.008 C 
HETATM   20  C13 RAP A 108       5.969  -9.282  -5.663  1.00 12.80     0.030 C 
HETATM   21  C14 RAP A 108       5.144 -10.555  -5.817  1.00 10.37     0.121 C 
HETATM   22  C15 RAP A 108       5.668 -11.622  -4.872  1.00  5.94     0.064 C 
HETATM   23  C16 RAP A 108       7.032 -12.217  -5.201  1.00  9.79     0.136 C 
HETATM   24  C17 RAP A 108       7.453 -13.237  -4.165  1.00 15.52    -0.017 C 
HETATM   25  C18 RAP A 108       8.500 -12.964  -3.398  1.00 14.38    -0.006 C 
HETATM   26  C19 RAP A 108       9.010 -13.838  -2.332  1.00  9.73    -0.001 C 
HETATM   27  C20 RAP A 108      10.099 -13.477  -1.668  1.00 10.26    -0.000 C 
HETATM   28  C21 RAP A 108      10.594 -14.266  -0.525  1.00 11.40    -0.005 C 
HETATM   29  C22 RAP A 108      11.548 -13.816   0.269  1.00 17.77    -0.026 C 
HETATM   30  C23 RAP A 108      12.020 -14.529   1.518  1.00 15.64     0.022 C 
HETATM   31  C24 RAP A 108      11.862 -13.547   2.666  1.00 14.68     0.012 C 
HETATM   32  C25 RAP A 108      10.501 -12.900   2.844  1.00 11.87     0.061 C 
HETATM   33  C26 RAP A 108      10.611 -11.629   3.675  1.00 11.65     0.180 C 
HETATM   34  C27 RAP A 108      10.762 -10.319   2.907  1.00  8.13     0.203 C 
HETATM   35  C28 RAP A 108       9.403  -9.718   2.427  1.00 10.80     0.163 C 
HETATM   36  C29 RAP A 108       8.872 -10.353   1.127  1.00  9.60    -0.019 C 
HETATM   37  C30 RAP A 108       7.795 -11.136   1.089  1.00  8.55    -0.025 C 
HETATM   38  C31 RAP A 108       7.113 -11.807  -0.113  1.00  8.43     0.079 C 
HETATM   39  C32 RAP A 108       5.849 -11.031  -0.484  1.00 10.69     0.157 C 
HETATM   40  C33 RAP A 108       6.076  -9.703  -1.197  1.00  6.51     0.095 C 
HETATM   41  C34 RAP A 108       5.163  -8.609  -0.680  1.00  9.62     0.132 C 
HETATM   42  C43 RAP A 108       3.156  -6.707  -6.487  1.00 11.25     0.005 C 
HETATM   43  C44 RAP A 108       6.622 -14.532  -4.125  1.00 14.40     0.029 C 
HETATM   44  C45 RAP A 108      13.470 -14.969   1.381  1.00  9.23     0.005 C 
HETATM   45  C46 RAP A 108       9.490 -13.870   3.462  1.00 15.99     0.008 C 
HETATM   46  C47 RAP A 108       9.691 -10.024  -0.107  1.00 14.60     0.029 C 
HETATM   47  C48 RAP A 108       6.743 -13.249   0.269  1.00  9.37     0.013 C 
ENDROOT
BRANCH  41  48
HETATM   48  C35 RAP A 108       5.551  -7.141  -0.945  1.00  9.58     0.028 C 
HETATM   49  C49 RAP A 108       5.223  -6.247   0.216  1.00  8.29     0.003 C 
BRANCH  48  50
HETATM   50  C36 RAP A 108       4.923  -6.602  -2.229  1.00 10.31     0.003 C 
BRANCH  50  51
HETATM   51  C37 RAP A 108       5.864  -5.988  -3.268  1.00 22.90     0.003 C 
HETATM   52  C38 RAP A 108       5.179  -4.808  -3.966  1.00 14.17     0.032 C 
HETATM   53  C39 RAP A 108       6.017  -4.216  -5.100  1.00 34.20     0.142 C 
HETATM   54  C40 RAP A 108       7.451  -3.857  -4.577  1.00 38.24     0.138 C 
HETATM   55  C41 RAP A 108       8.139  -5.025  -3.841  1.00 16.32     0.032 C 
HETATM   56  C42 RAP A 108       7.241  -5.581  -2.745  1.00 14.05     0.003 C 
BRANCH  53  57
HETATM   57  O12 RAP A 108       5.348  -3.058  -5.529  1.00 30.82    -0.352 OA
HETATM   58  C52 RAP A 108       4.792  -3.092  -6.798  1.00 28.14     0.174 C 
ENDBRANCH  53  57
BRANCH  54  59
HETATM   59  O13 RAP A 108       8.263  -3.456  -5.678  1.00 28.84    -0.382 OA
HETATM   60  HO3 RAP A 108       7.899  -2.656  -6.077  1.00 13.32     0.210 HD
ENDBRANCH  54  59
ENDBRANCH  50  51
ENDBRANCH  48  50
ENDBRANCH  41  48
BRANCH  35  61
HETATM   61  O10 RAP A 108       8.451  -9.903   3.482  1.00 12.16    -0.378 OA
HETATM   62  HO1 RAP A 108       8.378 -10.836   3.735  1.00 13.32     0.211 HD
ENDBRANCH  35  61
BRANCH  16  63
HETATM   63  O6  RAP A 108       2.872  -9.550  -7.408  1.00 14.16    -0.358 OA
HETATM   64  HO6 RAP A 108       3.734  -9.648  -7.822  1.00 13.32     0.213 HD
ENDBRANCH  16  63
BRANCH  34  65
HETATM   65  O9  RAP A 108      11.347  -9.367   3.755  1.00 23.09    -0.344 OA
HETATM   66  C51 RAP A 108      11.448  -8.087   3.236  1.00 19.04     0.175 C 
ENDBRANCH  34  65
BRANCH  23  67
HETATM   67  O7  RAP A 108       6.938 -12.833  -6.447  1.00 20.17    -0.350 OA
HETATM   68  C50 RAP A 108       7.989 -12.603  -7.329  1.00 28.36     0.175 C 
ENDBRANCH  23  67
TORSDOF 9
ENDMDL
MODEL 6
REMARK VINA RESULT:    -5.850      6.123     10.302
REMARK INTER + INTRA:         -10.848
REMARK INTER:                  -8.847
REMARK INTRA:                  -2.002
REMARK UNBOUND:                -2.433
REMARK  9 active torsions:
REMARK  status: ('A' for Active; 'I' for Inactive)
REMARK    1  A    between atoms: O6_12  and  C10_19 
REMARK    2  A    between atoms: O7_14  and  C16_29 
REMARK    3  A    between atoms: O9_18  and  C27_40 
REMARK    4  A    between atoms: O10_20  and  C28_41 
REMARK    5  A    between atoms: O12_24  and  C39_52 
REMARK    6  A    between atoms: O13_26  and  C40_53 
REMARK    7  A    between atoms: C34_47  and  C35_48 
REMARK    8  A    between atoms: C35_48  and  C36_49 
REMARK    9  A    between atoms: C36_49  and  C37_50 
ROOT
HETATM    1  C1  RAP A 108       8.072  -6.606  -6.520  1.00  5.98     0.292 C 
HETATM    2  O1  RAP A 108       6.829  -5.922  -6.432  1.00  9.08    -0.302 OA
HETATM    3  C2  RAP A 108       8.195  -7.987  -7.163  1.00  6.42     0.171 C 
HETATM    4  O2  RAP A 108       9.064  -6.070  -6.031  1.00 14.08    -0.262 OA
HETATM    5  C3  RAP A 108       9.418  -8.065  -8.066  1.00  5.50     0.033 C 
HETATM    6  O3  RAP A 108       6.414  -9.803  -6.322  1.00 10.38    -0.264 OA
HETATM    7  C4  RAP A 108       9.245  -7.337  -9.392  1.00  4.49     0.004 C 
HETATM    8  O4  RAP A 108       5.140 -10.729  -8.904  1.00 10.60    -0.281 OA
HETATM    9  C5  RAP A 108       8.001  -7.881 -10.071  1.00  4.19     0.024 C 
HETATM   10  O5  RAP A 108       3.708  -7.915  -8.711  1.00 10.76    -0.332 OA
HETATM   11  C6  RAP A 108       6.795  -7.700  -9.201  1.00  3.25     0.105 C 
HETATM   12  N7  RAP A 108       7.035  -8.429  -7.944  1.00  8.46    -0.307 N 
HETATM   13  C8  RAP A 108       6.166  -9.313  -7.431  1.00 10.06     0.297 C 
HETATM   14  O8  RAP A 108       8.073   3.522  -6.729  1.00 18.31    -0.293 OA
HETATM   15  C9  RAP A 108       5.027  -9.767  -8.133  1.00 11.13     0.279 C 
HETATM   16  C10 RAP A 108       3.644  -9.112  -7.971  1.00 16.59     0.246 C 
HETATM   17  C11 RAP A 108       3.280  -8.775  -6.467  1.00 10.40     0.059 C 
HETATM   18  O11 RAP A 108       7.441  -3.982  -8.589  1.00  9.49    -0.296 OA
HETATM   19  C12 RAP A 108       2.045  -7.848  -6.384  1.00 12.17     0.008 C 
HETATM   20  C13 RAP A 108       2.206  -6.661  -7.323  1.00 12.80     0.030 C 
HETATM   21  C14 RAP A 108       2.626  -7.055  -8.735  1.00 10.37     0.121 C 
HETATM   22  C15 RAP A 108       3.119  -5.829  -9.483  1.00  5.94     0.064 C 
HETATM   23  C16 RAP A 108       2.071  -4.790  -9.860  1.00  9.79     0.136 C 
HETATM   24  C17 RAP A 108       2.697  -3.606 -10.566  1.00 15.52    -0.017 C 
HETATM   25  C18 RAP A 108       2.681  -2.427  -9.958  1.00 14.38    -0.006 C 
HETATM   26  C19 RAP A 108       3.273  -1.196 -10.500  1.00  9.73    -0.001 C 
HETATM   27  C20 RAP A 108       3.146  -0.065  -9.819  1.00 10.26    -0.000 C 
HETATM   28  C21 RAP A 108       3.804   1.175 -10.267  1.00 11.40    -0.005 C 
HETATM   29  C22 RAP A 108       3.858   2.250  -9.502  1.00 17.77    -0.026 C 
HETATM   30  C23 RAP A 108       4.612   3.511  -9.862  1.00 15.64     0.022 C 
HETATM   31  C24 RAP A 108       5.587   3.774  -8.728  1.00 14.68     0.012 C 
HETATM   32  C25 RAP A 108       6.510   2.638  -8.329  1.00 11.87     0.061 C 
HETATM   33  C26 RAP A 108       7.060   2.854  -6.925  1.00 11.65     0.180 C 
HETATM   34  C27 RAP A 108       6.298   2.193  -5.781  1.00  8.13     0.203 C 
HETATM   35  C28 RAP A 108       6.693   0.698  -5.551  1.00 10.80     0.163 C 
HETATM   36  C29 RAP A 108       5.989  -0.280  -6.511  1.00  9.60    -0.019 C 
HETATM   37  C30 RAP A 108       6.630  -0.937  -7.477  1.00  8.55    -0.025 C 
HETATM   38  C31 RAP A 108       6.097  -1.969  -8.482  1.00  8.43     0.079 C 
HETATM   39  C32 RAP A 108       6.515  -3.373  -8.045  1.00 10.69     0.157 C 
HETATM   40  C33 RAP A 108       5.752  -3.950  -6.858  1.00  6.51     0.095 C 
HETATM   41  C34 RAP A 108       6.662  -4.663  -5.880  1.00  9.62     0.132 C 
HETATM   42  C43 RAP A 108       3.104 -10.009  -5.533  1.00 11.25     0.005 C 
HETATM   43  C44 RAP A 108       3.276  -3.890 -11.963  1.00 14.40     0.029 C 
HETATM   44  C45 RAP A 108       3.660   4.686 -10.037  1.00  9.23     0.005 C 
HETATM   45  C46 RAP A 108       7.647   2.452  -9.337  1.00 15.99     0.008 C 
HETATM   46  C47 RAP A 108       4.497  -0.422  -6.274  1.00 14.60     0.029 C 
HETATM   47  C48 RAP A 108       6.684  -1.661  -9.868  1.00  9.37     0.013 C 
ENDROOT
BRANCH  41  48
HETATM   48  C35 RAP A 108       6.157  -4.898  -4.442  1.00  9.58     0.028 C 
HETATM   49  C49 RAP A 108       7.272  -4.871  -3.436  1.00  8.29     0.003 C 
BRANCH  48  50
HETATM   50  C36 RAP A 108       5.357  -6.194  -4.318  1.00 10.31     0.003 C 
BRANCH  50  51
HETATM   51  C37 RAP A 108       4.822  -6.558  -2.931  1.00 22.90     0.003 C 
HETATM   52  C38 RAP A 108       3.309  -6.797  -2.997  1.00 14.17     0.032 C 
HETATM   53  C39 RAP A 108       2.685  -7.052  -1.624  1.00 34.20     0.142 C 
HETATM   54  C40 RAP A 108       3.446  -8.213  -0.896  1.00 38.24     0.138 C 
HETATM   55  C41 RAP A 108       4.973  -8.005  -0.853  1.00 16.32     0.032 C 
HETATM   56  C42 RAP A 108       5.524  -7.730  -2.245  1.00 14.05     0.003 C 
BRANCH  53  57
HETATM   57  O12 RAP A 108       1.347  -7.413  -1.855  1.00 30.82    -0.352 OA
HETATM   58  C52 RAP A 108       1.128  -8.489  -2.700  1.00 28.14     0.174 C 
ENDBRANCH  53  57
BRANCH  54  59
HETATM   59  O13 RAP A 108       2.954  -8.330   0.437  1.00 28.84    -0.382 OA
HETATM   60  HO3 RAP A 108       3.555  -7.884   1.047  1.00 13.32     0.210 HD
ENDBRANCH  54  59
ENDBRANCH  50  51
ENDBRANCH  48  50
ENDBRANCH  41  48
BRANCH  35  61
HETATM   61  O10 RAP A 108       8.114   0.598  -5.710  1.00 12.16    -0.378 OA
HETATM   62  HO1 RAP A 108       8.348   0.055  -6.477  1.00 13.32     0.211 HD
ENDBRANCH  35  61
BRANCH  16  63
HETATM   63  O6  RAP A 108       2.651  -9.996  -8.501  1.00 14.16    -0.358 OA
HETATM   64  HO6 RAP A 108       2.340  -9.629  -9.334  1.00 13.32     0.213 HD
ENDBRANCH  16  63
BRANCH  34  65
HETATM   65  O9  RAP A 108       6.592   2.875  -4.592  1.00 23.09    -0.344 OA
HETATM   66  C51 RAP A 108       5.575   3.669  -4.091  1.00 19.04     0.175 C 
ENDBRANCH  34  65
BRANCH  23  67
HETATM   67  O7  RAP A 108       1.151  -5.402 -10.709  1.00 20.17    -0.350 OA
HETATM   68  C50 RAP A 108      -0.047  -4.722 -10.912  1.00 28.36     0.175 C 
ENDBRANCH  23  67
TORSDOF 9
ENDMDL
MODEL 7
REMARK VINA RESULT:    -5.803      9.125     13.842
REMARK INTER + INTRA:         -10.781
REMARK INTER:                  -8.021
REMARK INTRA:                  -2.760
REMARK UNBOUND:                -2.433
REMARK  9 active torsions:
REMARK  status: ('A' for Active; 'I' for Inactive)
REMARK    1  A    between atoms: O6_12  and  C10_19 
REMARK    2  A    between atoms: O7_14  and  C16_29 
REMARK    3  A    between atoms: O9_18  and  C27_40 
REMARK    4  A    between atoms: O10_20  and  C28_41 
REMARK    5  A    between atoms: O12_24  and  C39_52 
REMARK    6  A    between atoms: O13_26  and  C40_53 
REMARK    7  A    between atoms: C34_47  and  C35_48 
REMARK    8  A    between atoms: C35_48  and  C36_49 
REMARK    9  A    between atoms: C36_49  and  C37_50 
ROOT
HETATM    1  C1  RAP A 108       7.107 -14.176   1.207  1.00  5.98     0.292 C 
HETATM    2  O1  RAP A 108       5.856 -13.593   1.546  1.00  9.08    -0.302 OA
HETATM    3  C2  RAP A 108       7.594 -15.479   1.840  1.00  6.42     0.171 C 
HETATM    4  O2  RAP A 108       7.821 -13.585   0.401  1.00 14.08    -0.262 OA
HETATM    5  C3  RAP A 108       8.200 -16.404   0.795  1.00  5.50     0.033 C 
HETATM    6  O3  RAP A 108       7.435 -15.580   4.513  1.00 10.38    -0.264 OA
HETATM    7  C4  RAP A 108       7.166 -17.087  -0.089  1.00  4.49     0.004 C 
HETATM    8  O4  RAP A 108       5.817 -18.091   4.987  1.00 10.60    -0.281 OA
HETATM    9  C5  RAP A 108       6.181 -17.813   0.809  1.00  4.19     0.024 C 
HETATM   10  O5  RAP A 108       3.446 -16.235   4.020  1.00 10.76    -0.332 OA
HETATM   11  C6  RAP A 108       5.525 -16.861   1.762  1.00  3.25     0.105 C 
HETATM   12  N7  RAP A 108       6.582 -16.243   2.578  1.00  8.46    -0.307 N 
HETATM   13  C8  RAP A 108       6.547 -16.206   3.919  1.00 10.06     0.297 C 
HETATM   14  O8  RAP A 108       2.180  -8.806  -5.828  1.00 18.31    -0.293 OA
HETATM   15  C9  RAP A 108       5.591 -16.913   4.683  1.00 11.13     0.279 C 
HETATM   16  C10 RAP A 108       4.276 -16.269   5.157  1.00 16.59     0.246 C 
HETATM   17  C11 RAP A 108       4.460 -14.797   5.711  1.00 10.40     0.059 C 
HETATM   18  O11 RAP A 108       4.502 -14.388  -0.969  1.00  9.49    -0.296 OA
HETATM   19  C12 RAP A 108       3.098 -14.086   5.876  1.00 12.17     0.008 C 
HETATM   20  C13 RAP A 108       2.263 -14.233   4.612  1.00 12.80     0.030 C 
HETATM   21  C14 RAP A 108       2.187 -15.666   4.096  1.00 10.37     0.121 C 
HETATM   22  C15 RAP A 108       1.671 -15.670   2.668  1.00  5.94     0.064 C 
HETATM   23  C16 RAP A 108       0.206 -15.299   2.469  1.00  9.79     0.136 C 
HETATM   24  C17 RAP A 108      -0.169 -15.305   1.002  1.00 15.52    -0.017 C 
HETATM   25  C18 RAP A 108      -0.492 -14.153   0.428  1.00 14.38    -0.006 C 
HETATM   26  C19 RAP A 108      -0.849 -13.994  -0.989  1.00  9.73    -0.001 C 
HETATM   27  C20 RAP A 108      -1.203 -12.797  -1.433  1.00 10.26    -0.000 C 
HETATM   28  C21 RAP A 108      -1.474 -12.561  -2.863  1.00 11.40    -0.005 C 
HETATM   29  C22 RAP A 108      -1.627 -11.344  -3.351  1.00 17.77    -0.026 C 
HETATM   30  C23 RAP A 108      -1.797 -11.034  -4.822  1.00 15.64     0.022 C 
HETATM   31  C24 RAP A 108      -0.695 -10.056  -5.191  1.00 14.68     0.012 C 
HETATM   32  C25 RAP A 108       0.728 -10.447  -4.839  1.00 11.87     0.061 C 
HETATM   33  C26 RAP A 108       1.634  -9.224  -4.810  1.00 11.65     0.180 C 
HETATM   34  C27 RAP A 108       1.838  -8.554  -3.455  1.00  8.13     0.203 C 
HETATM   35  C28 RAP A 108       2.953  -9.224  -2.590  1.00 10.80     0.163 C 
HETATM   36  C29 RAP A 108       2.477 -10.479  -1.834  1.00  9.60    -0.019 C 
HETATM   37  C30 RAP A 108       2.883 -11.710  -2.142  1.00  8.55    -0.025 C 
HETATM   38  C31 RAP A 108       2.545 -13.050  -1.473  1.00  8.43     0.079 C 
HETATM   39  C32 RAP A 108       3.722 -13.502  -0.607  1.00 10.69     0.157 C 
HETATM   40  C33 RAP A 108       3.903 -12.750   0.706  1.00  6.51     0.095 C 
HETATM   41  C34 RAP A 108       5.355 -12.428   0.991  1.00  9.62     0.132 C 
HETATM   42  C43 RAP A 108       5.303 -14.679   7.015  1.00 11.25     0.005 C 
HETATM   43  C44 RAP A 108      -0.168 -16.683   0.317  1.00 14.40     0.029 C 
HETATM   44  C45 RAP A 108      -3.167 -10.433  -5.099  1.00  9.23     0.005 C 
HETATM   45  C46 RAP A 108       1.275 -11.509  -5.796  1.00 15.99     0.008 C 
HETATM   46  C47 RAP A 108       1.490 -10.197  -0.716  1.00 14.60     0.029 C 
HETATM   47  C48 RAP A 108       2.274 -14.096  -2.566  1.00  9.37     0.013 C 
ENDROOT
BRANCH  41  48
HETATM   48  C35 RAP A 108       5.676 -11.309   2.001  1.00  9.58     0.028 C 
HETATM   49  C49 RAP A 108       5.677 -11.805   3.418  1.00  8.29     0.003 C 
BRANCH  48  50
HETATM   50  C36 RAP A 108       4.737 -10.113   1.854  1.00 10.31     0.003 C 
BRANCH  50  51
HETATM   51  C37 RAP A 108       5.270  -8.889   1.106  1.00 22.90     0.003 C 
HETATM   52  C38 RAP A 108       5.748  -9.295  -0.293  1.00 14.17     0.032 C 
HETATM   53  C39 RAP A 108       6.403  -8.144  -1.058  1.00 34.20     0.142 C 
HETATM   54  C40 RAP A 108       5.443  -6.905  -1.086  1.00 38.24     0.138 C 
HETATM   55  C41 RAP A 108       4.925  -6.506   0.310  1.00 16.32     0.032 C 
HETATM   56  C42 RAP A 108       4.311  -7.701   1.025  1.00 14.05     0.003 C 
BRANCH  53  57
HETATM   57  O12 RAP A 108       6.636  -8.612  -2.361  1.00 30.82    -0.352 OA
HETATM   58  C52 RAP A 108       7.948  -8.583  -2.810  1.00 28.14     0.174 C 
ENDBRANCH  53  57
BRANCH  54  59
HETATM   59  O13 RAP A 108       6.129  -5.795  -1.663  1.00 28.84    -0.382 OA
HETATM   60  HO3 RAP A 108       5.497  -5.097  -1.876  1.00 13.32     0.210 HD
ENDBRANCH  54  59
ENDBRANCH  50  51
ENDBRANCH  48  50
ENDBRANCH  41  48
BRANCH  35  61
HETATM   61  O10 RAP A 108       4.034  -9.566  -3.467  1.00 12.16    -0.378 OA
HETATM   62  HO1 RAP A 108       3.994 -10.496  -3.735  1.00 13.32     0.211 HD
ENDBRANCH  35  61
BRANCH  16  63
HETATM   63  O6  RAP A 108       3.710 -17.084   6.187  1.00 14.16    -0.358 OA
HETATM   64  HO6 RAP A 108       2.800 -16.803   6.323  1.00 13.32     0.213 HD
ENDBRANCH  16  63
BRANCH  34  65
HETATM   65  O9  RAP A 108       2.235  -7.225  -3.666  1.00 23.09    -0.344 OA
HETATM   66  C51 RAP A 108       2.037  -6.365  -2.600  1.00 19.04     0.175 C 
ENDBRANCH  34  65
BRANCH  23  67
HETATM   67  O7  RAP A 108      -0.566 -16.238   3.149  1.00 20.17    -0.350 OA
HETATM   68  C50 RAP A 108      -1.629 -15.737   3.895  1.00 28.36     0.175 C 
ENDBRANCH  23  67
TORSDOF 9
ENDMDL
MODEL 8
REMARK VINA RESULT:    -5.766      4.750      7.264
REMARK INTER + INTRA:         -10.727
REMARK INTER:                  -8.314
REMARK INTRA:                  -2.413
REMARK UNBOUND:                -2.433
REMARK  9 active torsions:
REMARK  status: ('A' for Active; 'I' for Inactive)
REMARK    1  A    between atoms: O6_12  and  C10_19 
REMARK    2  A    between atoms: O7_14  and  C16_29 
REMARK    3  A    between atoms: O9_18  and  C27_40 
REMARK    4  A    between atoms: O10_20  and  C28_41 
REMARK    5  A    between atoms: O12_24  and  C39_52 
REMARK    6  A    between atoms: O13_26  and  C40_53 
REMARK    7  A    between atoms: C34_47  and  C35_48 
REMARK    8  A    between atoms: C35_48  and  C36_49 
REMARK    9  A    between atoms: C36_49  and  C37_50 
ROOT
HETATM    1  C1  RAP A 108      10.677  -3.436  -6.931  1.00  5.98     0.292 C 
HETATM    2  O1  RAP A 108       9.307  -3.346  -6.563  1.00  9.08    -0.302 OA
HETATM    3  C2  RAP A 108      11.270  -4.701  -7.549  1.00  6.42     0.171 C 
HETATM    4  O2  RAP A 108      11.400  -2.466  -6.711  1.00 14.08    -0.262 OA
HETATM    5  C3  RAP A 108      12.183  -4.364  -8.719  1.00  5.50     0.033 C 
HETATM    6  O3  RAP A 108      10.706  -6.978  -6.255  1.00 10.38    -0.264 OA
HETATM    7  C4  RAP A 108      11.434  -3.962  -9.982  1.00  4.49     0.004 C 
HETATM    8  O4  RAP A 108       9.482  -8.690  -8.426  1.00 10.60    -0.281 OA
HETATM    9  C5  RAP A 108      10.456  -5.070 -10.325  1.00  4.19     0.024 C 
HETATM   10  O5  RAP A 108       7.016  -6.765  -7.965  1.00 10.76    -0.332 OA
HETATM   11  C6  RAP A 108       9.505  -5.313  -9.194  1.00  3.25     0.105 C 
HETATM   12  N7  RAP A 108      10.298  -5.696  -8.015  1.00  8.46    -0.307 N 
HETATM   13  C8  RAP A 108      10.043  -6.792  -7.283  1.00 10.06     0.297 C 
HETATM   14  O8  RAP A 108       6.098   5.589  -7.396  1.00 18.31    -0.293 OA
HETATM   15  C9  RAP A 108       9.112  -7.778  -7.676  1.00 11.13     0.279 C 
HETATM   16  C10 RAP A 108       7.647  -7.765  -7.201  1.00 16.59     0.246 C 
HETATM   17  C11 RAP A 108       7.489  -7.423  -5.663  1.00 10.40     0.059 C 
HETATM   18  O11 RAP A 108       8.527  -1.632  -8.853  1.00  9.49    -0.296 OA
HETATM   19  C12 RAP A 108       6.016  -7.114  -5.307  1.00 12.17     0.008 C 
HETATM   20  C13 RAP A 108       5.432  -6.107  -6.287  1.00 12.80     0.030 C 
HETATM   21  C14 RAP A 108       5.683  -6.464  -7.749  1.00 10.37     0.121 C 
HETATM   22  C15 RAP A 108       5.410  -5.255  -8.626  1.00  5.94     0.064 C 
HETATM   23  C16 RAP A 108       3.955  -4.825  -8.764  1.00  9.79     0.136 C 
HETATM   24  C17 RAP A 108       3.825  -3.590  -9.631  1.00 15.52    -0.017 C 
HETATM   25  C18 RAP A 108       3.407  -2.464  -9.068  1.00 14.38    -0.006 C 
HETATM   26  C19 RAP A 108       3.259  -1.181  -9.769  1.00  9.73    -0.001 C 
HETATM   27  C20 RAP A 108       2.782  -0.136  -9.107  1.00 10.26    -0.000 C 
HETATM   28  C21 RAP A 108       2.707   1.197  -9.733  1.00 11.40    -0.005 C 
HETATM   29  C22 RAP A 108       2.430   2.280  -9.032  1.00 17.77    -0.026 C 
HETATM   30  C23 RAP A 108       2.447   3.684  -9.596  1.00 15.64     0.022 C 
HETATM   31  C24 RAP A 108       3.411   4.486  -8.739  1.00 14.68     0.012 C 
HETATM   32  C25 RAP A 108       4.806   3.919  -8.547  1.00 11.87     0.061 C 
HETATM   33  C26 RAP A 108       5.475   4.532  -7.324  1.00 11.65     0.180 C 
HETATM   34  C27 RAP A 108       5.343   3.764  -6.013  1.00  8.13     0.203 C 
HETATM   35  C28 RAP A 108       6.403   2.628  -5.847  1.00 10.80     0.163 C 
HETATM   36  C29 RAP A 108       6.032   1.325  -6.582  1.00  9.60    -0.019 C 
HETATM   37  C30 RAP A 108       6.686   0.887  -7.657  1.00  8.55    -0.025 C 
HETATM   38  C31 RAP A 108       6.477  -0.396  -8.476  1.00  8.43     0.079 C 
HETATM   39  C32 RAP A 108       7.560  -1.414  -8.117  1.00 10.69     0.157 C 
HETATM   40  C33 RAP A 108       7.398  -2.101  -6.766  1.00  6.51     0.095 C 
HETATM   41  C34 RAP A 108       8.711  -2.220  -6.019  1.00  9.62     0.132 C 
HETATM   42  C43 RAP A 108       8.080  -8.480  -4.683  1.00 11.25     0.005 C 
HETATM   43  C44 RAP A 108       4.168  -3.779 -11.119  1.00 14.40     0.029 C 
HETATM   44  C45 RAP A 108       1.057   4.302  -9.566  1.00  9.23     0.005 C 
HETATM   45  C46 RAP A 108       5.671   4.109  -9.795  1.00 15.99     0.008 C 
HETATM   46  C47 RAP A 108       4.847   0.589  -5.986  1.00 14.60     0.029 C 
HETATM   47  C48 RAP A 108       6.566  -0.050  -9.970  1.00  9.37     0.013 C 
ENDROOT
BRANCH  41  48
HETATM   48  C35 RAP A 108       8.672  -2.459  -4.497  1.00  9.58     0.028 C 
HETATM   49  C49 RAP A 108       8.010  -3.759  -4.141  1.00  8.29     0.003 C 
BRANCH  48  50
HETATM   50  C36 RAP A 108       8.012  -1.301  -3.749  1.00 10.31     0.003 C 
BRANCH  50  51
HETATM   51  C37 RAP A 108       8.936  -0.259  -3.114  1.00 22.90     0.003 C 
HETATM   52  C38 RAP A 108       9.023   0.982  -4.009  1.00 14.17     0.032 C 
HETATM   53  C39 RAP A 108      10.021   2.021  -3.495  1.00 34.20     0.142 C 
HETATM   54  C40 RAP A 108       9.703   2.377  -2.002  1.00 38.24     0.138 C 
HETATM   55  C41 RAP A 108       9.576   1.136  -1.095  1.00 16.32     0.032 C 
HETATM   56  C42 RAP A 108       8.590   0.135  -1.678  1.00 14.05     0.003 C 
BRANCH  53  57
HETATM   57  O12 RAP A 108       9.873   3.155  -4.311  1.00 30.82    -0.352 OA
HETATM   58  C52 RAP A 108      10.970   3.520  -5.076  1.00 28.14     0.174 C 
ENDBRANCH  53  57
BRANCH  54  59
HETATM   59  O13 RAP A 108      10.732   3.224  -1.494  1.00 28.84    -0.382 OA
HETATM   60  HO3 RAP A 108      11.305   3.508  -2.217  1.00 13.32     0.210 HD
ENDBRANCH  54  59
ENDBRANCH  50  51
ENDBRANCH  48  50
ENDBRANCH  41  48
BRANCH  35  61
HETATM   61  O10 RAP A 108       7.652   3.126  -6.343  1.00 12.16    -0.378 OA
HETATM   62  HO1 RAP A 108       8.324   2.429  -6.379  1.00 13.32     0.211 HD
ENDBRANCH  35  61
BRANCH  16  63
HETATM   63  O6  RAP A 108       7.071  -9.050  -7.452  1.00 14.16    -0.358 OA
HETATM   64  HO6 RAP A 108       6.197  -8.916  -7.831  1.00 13.32     0.213 HD
ENDBRANCH  16  63
BRANCH  34  65
HETATM   65  O9  RAP A 108       5.538   4.655  -4.948  1.00 23.09    -0.344 OA
HETATM   66  C51 RAP A 108       5.209   4.170  -3.694  1.00 19.04     0.175 C 
ENDBRANCH  34  65
BRANCH  23  67
HETATM   67  O7  RAP A 108       3.254  -5.878  -9.349  1.00 20.17    -0.350 OA
HETATM   68  C50 RAP A 108       2.218  -6.422  -8.595  1.00 28.36     0.175 C 
ENDBRANCH  23  67
TORSDOF 9
ENDMDL
MODEL 9
REMARK VINA RESULT:    -5.759      2.808      4.899
REMARK INTER + INTRA:         -10.718
REMARK INTER:                  -7.952
REMARK INTRA:                  -2.766
REMARK UNBOUND:                -2.433
REMARK  9 active torsions:
REMARK  status: ('A' for Active; 'I' for Inactive)
REMARK    1  A    between atoms: O6_12  and  C10_19 
REMARK    2  A    between atoms: O7_14  and  C16_29 
REMARK    3  A    between atoms: O9_18  and  C27_40 
REMARK    4  A    between atoms: O10_20  and  C28_41 
REMARK    5  A    between atoms: O12_24  and  C39_52 
REMARK    6  A    between atoms: O13_26  and  C40_53 
REMARK    7  A    between atoms: C34_47  and  C35_48 
REMARK    8  A    between atoms: C35_48  and  C36_49 
REMARK    9  A    between atoms: C36_49  and  C37_50 
ROOT
HETATM    1  C1  RAP A 108      12.533  -5.808  -3.967  1.00  5.98     0.292 C 
HETATM    2  O1  RAP A 108      11.329  -5.296  -3.413  1.00  9.08    -0.302 OA
HETATM    3  C2  RAP A 108      12.738  -7.301  -4.226  1.00  6.42     0.171 C 
HETATM    4  O2  RAP A 108      13.440  -5.016  -4.212  1.00 14.08    -0.262 OA
HETATM    5  C3  RAP A 108      13.383  -7.538  -5.584  1.00  5.50     0.033 C 
HETATM    6  O3  RAP A 108      12.130  -8.910  -2.173  1.00 10.38    -0.264 OA
HETATM    7  C4  RAP A 108      12.430  -7.349  -6.755  1.00  4.49     0.004 C 
HETATM    8  O4  RAP A 108      10.146 -10.834  -3.403  1.00 10.60    -0.281 OA
HETATM    9  C5  RAP A 108      11.226  -8.247  -6.533  1.00  4.19     0.024 C 
HETATM   10  O5  RAP A 108       8.225  -8.332  -3.177  1.00 10.76    -0.332 OA
HETATM   11  C6  RAP A 108      10.550  -7.923  -5.237  1.00  3.25     0.105 C 
HETATM   12  N7  RAP A 108      11.529  -8.128  -4.157  1.00  8.46    -0.307 N 
HETATM   13  C8  RAP A 108      11.278  -8.876  -3.071  1.00 10.06     0.297 C 
HETATM   14  O8  RAP A 108       9.563   3.519  -6.575  1.00 18.31    -0.293 OA
HETATM   15  C9  RAP A 108      10.127  -9.685  -2.944  1.00 11.13     0.279 C 
HETATM   16  C10 RAP A 108       8.846  -9.191  -2.249  1.00 16.59     0.246 C 
HETATM   17  C11 RAP A 108       9.124  -8.395  -0.909  1.00 10.40     0.059 C 
HETATM   18  O11 RAP A 108      10.317  -4.177  -5.965  1.00  9.49    -0.296 OA
HETATM   19  C12 RAP A 108       7.855  -7.659  -0.421  1.00 12.17     0.008 C 
HETATM   20  C13 RAP A 108       7.229  -6.866  -1.559  1.00 12.80     0.030 C 
HETATM   21  C14 RAP A 108       7.055  -7.676  -2.840  1.00 10.37     0.121 C 
HETATM   22  C15 RAP A 108       6.785  -6.740  -4.005  1.00  5.94     0.064 C 
HETATM   23  C16 RAP A 108       5.433  -6.037  -4.018  1.00  9.79     0.136 C 
HETATM   24  C17 RAP A 108       5.306  -5.108  -5.207  1.00 15.52    -0.017 C 
HETATM   25  C18 RAP A 108       5.233  -3.803  -4.984  1.00 14.38    -0.006 C 
HETATM   26  C19 RAP A 108       5.137  -2.777  -6.033  1.00  9.73    -0.001 C 
HETATM   27  C20 RAP A 108       5.018  -1.505  -5.681  1.00 10.26    -0.000 C 
HETATM   28  C21 RAP A 108       5.018  -0.429  -6.689  1.00 11.40    -0.005 C 
HETATM   29  C22 RAP A 108       5.106   0.843  -6.348  1.00 17.77    -0.026 C 
HETATM   30  C23 RAP A 108       5.221   1.981  -7.339  1.00 15.64     0.022 C 
HETATM   31  C24 RAP A 108       6.485   2.744  -6.980  1.00 14.68     0.012 C 
HETATM   32  C25 RAP A 108       7.768   1.943  -6.860  1.00 11.87     0.061 C 
HETATM   33  C26 RAP A 108       8.807   2.705  -6.048  1.00 11.65     0.180 C 
HETATM   34  C27 RAP A 108       8.870   2.398  -4.556  1.00  8.13     0.203 C 
HETATM   35  C28 RAP A 108       9.732   1.141  -4.213  1.00 10.80     0.163 C 
HETATM   36  C29 RAP A 108       8.980  -0.191  -4.398  1.00  9.60    -0.019 C 
HETATM   37  C30 RAP A 108       9.270  -1.061  -5.365  1.00  8.55    -0.025 C 
HETATM   38  C31 RAP A 108       8.658  -2.437  -5.663  1.00  8.43     0.079 C 
HETATM   39  C32 RAP A 108       9.608  -3.535  -5.184  1.00 10.69     0.157 C 
HETATM   40  C33 RAP A 108       9.665  -3.748  -3.676  1.00  6.51     0.095 C 
HETATM   41  C34 RAP A 108      11.080  -3.954  -3.177  1.00  9.62     0.132 C 
HETATM   42  C43 RAP A 108       9.749  -9.235   0.245  1.00 11.25     0.005 C 
HETATM   43  C44 RAP A 108       5.242  -5.791  -6.585  1.00 14.40     0.029 C 
HETATM   44  C45 RAP A 108       4.004   2.892  -7.269  1.00  9.23     0.005 C 
HETATM   45  C46 RAP A 108       8.324   1.558  -8.234  1.00 15.99     0.008 C 
HETATM   46  C47 RAP A 108       7.868  -0.424  -3.393  1.00 14.60     0.029 C 
HETATM   47  C48 RAP A 108       8.438  -2.565  -7.178  1.00  9.37     0.013 C 
ENDROOT
BRANCH  41  48
HETATM   48  C35 RAP A 108      11.372  -3.731  -1.679  1.00  9.58     0.028 C 
HETATM   49  C49 RAP A 108      10.858  -4.854  -0.826  1.00  8.29     0.003 C 
BRANCH  48  50
HETATM   50  C36 RAP A 108      10.832  -2.391  -1.182  1.00 10.31     0.003 C 
BRANCH  50  51
HETATM   51  C37 RAP A 108      11.780  -1.191  -1.229  1.00 22.90     0.003 C 
HETATM   52  C38 RAP A 108      12.327  -1.008  -2.649  1.00 14.17     0.032 C 
HETATM   53  C39 RAP A 108      13.374   0.103  -2.748  1.00 34.20     0.142 C 
HETATM   54  C40 RAP A 108      12.802   1.433  -2.147  1.00 38.24     0.138 C 
HETATM   55  C41 RAP A 108      12.216   1.258  -0.731  1.00 16.32     0.032 C 
HETATM   56  C42 RAP A 108      11.203   0.122  -0.699  1.00 14.05     0.003 C 
BRANCH  53  57
HETATM   57  O12 RAP A 108      13.656   0.265  -4.114  1.00 30.82    -0.352 OA
HETATM   58  C52 RAP A 108      13.751  -0.891  -4.873  1.00 28.14     0.174 C 
ENDBRANCH  53  57
BRANCH  54  59
HETATM   59  O13 RAP A 108      13.840   2.411  -2.104  1.00 28.84    -0.382 OA
HETATM   60  HO3 RAP A 108      14.622   2.074  -2.559  1.00 13.32     0.210 HD
ENDBRANCH  54  59
ENDBRANCH  50  51
ENDBRANCH  48  50
ENDBRANCH  41  48
BRANCH  35  61
HETATM   61  O10 RAP A 108      10.889   1.167  -5.058  1.00 12.16    -0.378 OA
HETATM   62  HO1 RAP A 108      11.479   0.420  -4.877  1.00 13.32     0.211 HD
ENDBRANCH  35  61
BRANCH  16  63
HETATM   63  O6  RAP A 108       8.018 -10.320  -1.955  1.00 14.16    -0.358 OA
HETATM   64  HO6 RAP A 108       7.344 -10.382  -2.638  1.00 13.32     0.213 HD
ENDBRANCH  16  63
BRANCH  34  65
HETATM   65  O9  RAP A 108       9.464   3.485  -3.898  1.00 23.09    -0.344 OA
HETATM   66  C51 RAP A 108       9.621   3.343  -2.530  1.00 19.04     0.175 C 
ENDBRANCH  34  65
BRANCH  23  67
HETATM   67  O7  RAP A 108       4.444  -7.017  -4.088  1.00 20.17    -0.350 OA
HETATM   68  C50 RAP A 108       3.298  -6.790  -3.332  1.00 28.36     0.175 C 
ENDBRANCH  23  67
TORSDOF 9
ENDMDL
