MODEL 1
REMARK VINA RESULT:   -10.862      0.000      0.000
REMARK INTER + INTRA:         -17.914
REMARK INTER:                 -15.625
REMARK INTRA:                  -2.289
REMARK UNBOUND:                -2.289
REMARK  9 active torsions:
REMARK  status: ('A' for Active; 'I' for Inactive)
REMARK    1  A    between atoms: O6_12  and  C10_19 
REMARK    2  A    between atoms: O7_14  and  C16_29 
REMARK    3  A    between atoms: O9_18  and  C27_40 
REMARK    4  A    between atoms: O10_20  and  C28_41 
REMARK    5  A    between atoms: O12_24  and  C39_52 
REMARK    6  A    between atoms: O13_26  and  C40_53 
REMARK    7  A    between atoms: C34_47  and  C35_48 
REMARK    8  A    between atoms: C35_48  and  C36_49 
REMARK    9  A    between atoms: C36_49  and  C37_50 
ROOT
HETATM    1  C1  RAP A 108       4.739   8.399  12.907  1.00  5.98     0.292 C 
HETATM    2  O1  RAP A 108       4.414   9.483  13.767  1.00  9.08    -0.302 OA
HETATM    3  C2  RAP A 108       4.245   6.977  13.171  1.00  6.42     0.171 C 
HETATM    4  O2  RAP A 108       5.467   8.624  11.942  1.00 14.08    -0.262 OA
HETATM    5  C3  RAP A 108       3.750   6.321  11.891  1.00  5.50     0.033 C 
HETATM    6  O3  RAP A 108       4.630   6.079  15.666  1.00 10.38    -0.264 OA
HETATM    7  C4  RAP A 108       2.392   6.830  11.430  1.00  4.49     0.004 C 
HETATM    8  O4  RAP A 108       1.847   5.245  16.507  1.00 10.60    -0.281 OA
HETATM    9  C5  RAP A 108       1.409   6.656  12.574  1.00  4.19     0.024 C 
HETATM   10  O5  RAP A 108       1.439   8.373  16.737  1.00 10.76    -0.332 OA
HETATM   11  C6  RAP A 108       1.871   7.395  13.792  1.00  3.25     0.105 C 
HETATM   12  N7  RAP A 108       3.184   6.851  14.176  1.00  8.46    -0.307 N 
HETATM   13  C8  RAP A 108       3.469   6.432  15.418  1.00 10.06     0.297 C 
HETATM   14  O8  RAP A 108       3.933  17.681   8.932  1.00 18.31    -0.293 OA
HETATM   15  C9  RAP A 108       2.491   6.299  16.428  1.00 11.13     0.279 C 
HETATM   16  C10 RAP A 108       2.197   7.419  17.443  1.00 16.59     0.246 C 
HETATM   17  C11 RAP A 108       3.503   8.110  18.012  1.00 10.40     0.059 C 
HETATM   18  O11 RAP A 108       2.423  10.690  11.932  1.00  9.49    -0.296 OA
HETATM   19  C12 RAP A 108       3.162   9.414  18.770  1.00 12.17     0.008 C 
HETATM   20  C13 RAP A 108       2.243  10.292  17.932  1.00 12.80     0.030 C 
HETATM   21  C14 RAP A 108       1.044   9.544  17.358  1.00 10.37     0.121 C 
HETATM   22  C15 RAP A 108       0.403  10.371  16.258  1.00  5.94     0.064 C 
HETATM   23  C16 RAP A 108      -0.328  11.636  16.691  1.00  9.79     0.136 C 
HETATM   24  C17 RAP A 108      -0.887  12.385  15.499  1.00 15.52    -0.017 C 
HETATM   25  C18 RAP A 108      -0.383  13.577  15.210  1.00 14.38    -0.006 C 
HETATM   26  C19 RAP A 108      -0.799  14.410  14.072  1.00  9.73    -0.001 C 
HETATM   27  C20 RAP A 108      -0.255  15.609  13.918  1.00 10.26    -0.000 C 
HETATM   28  C21 RAP A 108      -0.562  16.442  12.741  1.00 11.40    -0.005 C 
HETATM   29  C22 RAP A 108       0.119  17.539  12.469  1.00 17.77    -0.026 C 
HETATM   30  C23 RAP A 108      -0.077  18.373  11.221  1.00 15.64     0.022 C 
HETATM   31  C24 RAP A 108       1.277  18.459  10.538  1.00 14.68     0.012 C 
HETATM   32  C25 RAP A 108       1.999  17.153  10.259  1.00 11.87     0.061 C 
HETATM   33  C26 RAP A 108       3.487  17.394  10.040  1.00 11.65     0.180 C 
HETATM   34  C27 RAP A 108       4.391  17.246  11.259  1.00  8.13     0.203 C 
HETATM   35  C28 RAP A 108       4.817  15.770  11.545  1.00 10.80     0.163 C 
HETATM   36  C29 RAP A 108       3.752  14.958  12.308  1.00  9.60    -0.019 C 
HETATM   37  C30 RAP A 108       3.060  13.965  11.751  1.00  8.55    -0.025 C 
HETATM   38  C31 RAP A 108       2.007  13.037  12.372  1.00  8.43     0.079 C 
HETATM   39  C32 RAP A 108       2.631  11.670  12.654  1.00 10.69     0.157 C 
HETATM   40  C33 RAP A 108       3.572  11.608  13.852  1.00  6.51     0.095 C 
HETATM   41  C34 RAP A 108       4.816  10.793  13.566  1.00  9.62     0.132 C 
HETATM   42  C43 RAP A 108       4.415   7.193  18.881  1.00 11.25     0.005 C 
HETATM   43  C44 RAP A 108      -2.031  11.684  14.746  1.00 14.40     0.029 C 
HETATM   44  C45 RAP A 108      -0.595  19.761  11.567  1.00  9.23     0.005 C 
HETATM   45  C46 RAP A 108       1.385  16.411   9.070  1.00 15.99     0.008 C 
HETATM   46  C47 RAP A 108       3.547  15.396  13.746  1.00 14.60     0.029 C 
HETATM   47  C48 RAP A 108       0.840  12.879  11.384  1.00  9.37     0.013 C 
ENDROOT
BRANCH  41  48
HETATM   48  C35 RAP A 108       6.052  10.997  14.466  1.00  9.58     0.028 C 
HETATM   49  C49 RAP A 108       5.686  11.104  15.918  1.00  8.29     0.003 C 
BRANCH  48  50
HETATM   50  C36 RAP A 108       6.886  12.202  14.034  1.00 10.31     0.003 C 
BRANCH  50  51
HETATM   51  C37 RAP A 108       7.513  12.158  12.639  1.00 22.90     0.003 C 
HETATM   52  C38 RAP A 108       7.815  13.581  12.154  1.00 14.17     0.032 C 
HETATM   53  C39 RAP A 108       8.336  13.623  10.716  1.00 34.20     0.142 C 
HETATM   54  C40 RAP A 108       9.564  12.661  10.563  1.00 38.24     0.138 C 
HETATM   55  C41 RAP A 108       9.287  11.235  11.080  1.00 16.32     0.032 C 
HETATM   56  C42 RAP A 108       8.747  11.268  12.502  1.00 14.05     0.003 C 
BRANCH  53  57
HETATM   57  O12 RAP A 108       8.721  14.952  10.470  1.00 30.82    -0.352 OA
HETATM   58  C52 RAP A 108       9.637  15.509  11.349  1.00 28.14     0.174 C 
ENDBRANCH  53  57
BRANCH  54  59
HETATM   59  O13 RAP A 108       9.937  12.594   9.188  1.00 28.84    -0.382 OA
HETATM   60  HO3 RAP A 108      10.829  12.233   9.109  1.00 13.32     0.210 HD
ENDBRANCH  54  59
ENDBRANCH  50  51
ENDBRANCH  48  50
ENDBRANCH  41  48
BRANCH  35  61
HETATM   61  O10 RAP A 108       5.092  15.148  10.284  1.00 12.16    -0.378 OA
HETATM   62  HO1 RAP A 108       4.934  14.193  10.317  1.00 13.32     0.211 HD
ENDBRANCH  35  61
BRANCH  16  63
HETATM   63  O6  RAP A 108       1.451   6.869  18.532  1.00 14.16    -0.358 OA
HETATM   64  HO6 RAP A 108       0.539   6.761  18.245  1.00 13.32     0.213 HD
ENDBRANCH  16  63
BRANCH  34  65
HETATM   65  O9  RAP A 108       5.572  17.969  11.032  1.00 23.09    -0.344 OA
HETATM   66  C51 RAP A 108       6.564  17.809  11.985  1.00 19.04     0.175 C 
ENDBRANCH  34  65
BRANCH  23  67
HETATM   67  O7  RAP A 108      -1.373  11.257  17.531  1.00 20.17    -0.350 OA
HETATM   68  C50 RAP A 108      -1.583  12.055  18.652  1.00 28.36     0.175 C 
ENDBRANCH  23  67
TORSDOF 9
ENDMDL
MODEL 2
REMARK VINA RESULT:   -10.093      1.677      2.237
REMARK INTER + INTRA:         -16.807
REMARK INTER:                 -14.755
REMARK INTRA:                  -2.052
REMARK UNBOUND:                -2.289
REMARK  9 active torsions:
REMARK  status: ('A' for Active; 'I' for Inactive)
REMARK    1  A    between atoms: O6_12  and  C10_19 
REMARK    2  A    between atoms: O7_14  and  C16_29 
REMARK    3  A    between atoms: O9_18  and  C27_40 
REMARK    4  A    between atoms: O10_20  and  C28_41 
REMARK    5  A    between atoms: O12_24  and  C39_52 
REMARK    6  A    between atoms: O13_26  and  C40_53 
REMARK    7  A    between atoms: C34_47  and  C35_48 
REMARK    8  A    between atoms: C35_48  and  C36_49 
REMARK    9  A    between atoms: C36_49  and  C37_50 
ROOT
HETATM    1  C1  RAP A 108       4.732   8.380  12.878  1.00  5.98     0.292 C 
HETATM    2  O1  RAP A 108       4.427   9.451  13.761  1.00  9.08    -0.302 OA
HETATM    3  C2  RAP A 108       4.235   6.956  13.126  1.00  6.42     0.171 C 
HETATM    4  O2  RAP A 108       5.444   8.618  11.905  1.00 14.08    -0.262 OA
HETATM    5  C3  RAP A 108       3.716   6.325  11.842  1.00  5.50     0.033 C 
HETATM    6  O3  RAP A 108       4.657   6.014  15.598  1.00 10.38    -0.264 OA
HETATM    7  C4  RAP A 108       2.352   6.848  11.413  1.00  4.49     0.004 C 
HETATM    8  O4  RAP A 108       1.884   5.178  16.471  1.00 10.60    -0.281 OA
HETATM    9  C5  RAP A 108       1.388   6.659  12.570  1.00  4.19     0.024 C 
HETATM   10  O5  RAP A 108       1.496   8.303  16.761  1.00 10.76    -0.332 OA
HETATM   11  C6  RAP A 108       1.874   7.375  13.793  1.00  3.25     0.105 C 
HETATM   12  N7  RAP A 108       3.190   6.818  14.146  1.00  8.46    -0.307 N 
HETATM   13  C8  RAP A 108       3.494   6.376  15.375  1.00 10.06     0.297 C 
HETATM   14  O8  RAP A 108       3.905  17.734   9.078  1.00 18.31    -0.293 OA
HETATM   15  C9  RAP A 108       2.532   6.230  16.399  1.00 11.13     0.279 C 
HETATM   16  C10 RAP A 108       2.261   7.334  17.438  1.00 16.59     0.246 C 
HETATM   17  C11 RAP A 108       3.579   8.009  17.997  1.00 10.40     0.059 C 
HETATM   18  O11 RAP A 108       2.411  10.699  11.981  1.00  9.49    -0.296 OA
HETATM   19  C12 RAP A 108       3.257   9.301  18.783  1.00 12.17     0.008 C 
HETATM   20  C13 RAP A 108       2.329  10.197  17.975  1.00 12.80     0.030 C 
HETATM   21  C14 RAP A 108       1.117   9.465  17.409  1.00 10.37     0.121 C 
HETATM   22  C15 RAP A 108       0.462  10.315  16.334  1.00  5.94     0.064 C 
HETATM   23  C16 RAP A 108      -0.256  11.575  16.801  1.00  9.79     0.136 C 
HETATM   24  C17 RAP A 108      -0.831  12.347  15.632  1.00 15.52    -0.017 C 
HETATM   25  C18 RAP A 108      -0.326  13.542  15.354  1.00 14.38    -0.006 C 
HETATM   26  C19 RAP A 108      -0.757  14.395  14.239  1.00  9.73    -0.001 C 
HETATM   27  C20 RAP A 108      -0.209  15.594  14.096  1.00 10.26    -0.000 C 
HETATM   28  C21 RAP A 108      -0.532  16.449  12.939  1.00 11.40    -0.005 C 
HETATM   29  C22 RAP A 108       0.150  17.548  12.674  1.00 17.77    -0.026 C 
HETATM   30  C23 RAP A 108      -0.063  18.404  11.445  1.00 15.64     0.022 C 
HETATM   31  C24 RAP A 108       1.280  18.496  10.741  1.00 14.68     0.012 C 
HETATM   32  C25 RAP A 108       1.991  17.192  10.427  1.00 11.87     0.061 C 
HETATM   33  C26 RAP A 108       3.476  17.429  10.187  1.00 11.65     0.180 C 
HETATM   34  C27 RAP A 108       4.400  17.256  11.388  1.00  8.13     0.203 C 
HETATM   35  C28 RAP A 108       4.823  15.774  11.642  1.00 10.80     0.163 C 
HETATM   36  C29 RAP A 108       3.767  14.954  12.408  1.00  9.60    -0.019 C 
HETATM   37  C30 RAP A 108       3.061  13.974  11.846  1.00  8.55    -0.025 C 
HETATM   38  C31 RAP A 108       2.013  13.039  12.468  1.00  8.43     0.079 C 
HETATM   39  C32 RAP A 108       2.636  11.665  12.717  1.00 10.69     0.157 C 
HETATM   40  C33 RAP A 108       3.596  11.578  13.898  1.00  6.51     0.095 C 
HETATM   41  C34 RAP A 108       4.832  10.763  13.577  1.00  9.62     0.132 C 
HETATM   42  C43 RAP A 108       4.501   7.073  18.834  1.00 11.25     0.005 C 
HETATM   43  C44 RAP A 108      -1.991  11.665  14.886  1.00 14.40     0.029 C 
HETATM   44  C45 RAP A 108      -0.568  19.788  11.823  1.00  9.23     0.005 C 
HETATM   45  C46 RAP A 108       1.353  16.473   9.236  1.00 15.99     0.008 C 
HETATM   46  C47 RAP A 108       3.588  15.367  13.857  1.00 14.60     0.029 C 
HETATM   47  C48 RAP A 108       0.830  12.904  11.498  1.00  9.37     0.013 C 
ENDROOT
BRANCH  41  48
HETATM   48  C35 RAP A 108       6.083  10.945  14.459  1.00  9.58     0.028 C 
HETATM   49  C49 RAP A 108       5.734  11.139  15.906  1.00  8.29     0.003 C 
BRANCH  48  50
HETATM   50  C36 RAP A 108       6.974  12.084  13.966  1.00 10.31     0.003 C 
BRANCH  50  51
HETATM   51  C37 RAP A 108       7.334  13.179  14.972  1.00 22.90     0.003 C 
HETATM   52  C38 RAP A 108       8.737  12.934  15.537  1.00 14.17     0.032 C 
HETATM   53  C39 RAP A 108       9.120  13.925  16.638  1.00 34.20     0.142 C 
HETATM   54  C40 RAP A 108       8.925  15.394  16.127  1.00 38.24     0.138 C 
HETATM   55  C41 RAP A 108       7.529  15.647  15.522  1.00 16.32     0.032 C 
HETATM   56  C42 RAP A 108       7.203  14.612  14.456  1.00 14.05     0.003 C 
BRANCH  53  57
HETATM   57  O12 RAP A 108      10.471  13.686  16.938  1.00 30.82    -0.352 OA
HETATM   58  C52 RAP A 108      10.825  12.376  17.220  1.00 28.14     0.174 C 
ENDBRANCH  53  57
BRANCH  54  59
HETATM   59  O13 RAP A 108       9.135  16.297  17.211  1.00 28.84    -0.382 OA
HETATM   60  HO3 RAP A 108       9.179  17.202  16.876  1.00 13.32     0.210 HD
ENDBRANCH  54  59
ENDBRANCH  50  51
ENDBRANCH  48  50
ENDBRANCH  41  48
BRANCH  35  61
HETATM   61  O10 RAP A 108       5.074  15.172  10.365  1.00 12.16    -0.378 OA
HETATM   62  HO1 RAP A 108       5.970  15.363  10.052  1.00 13.32     0.211 HD
ENDBRANCH  35  61
BRANCH  16  63
HETATM   63  O6  RAP A 108       1.530   6.768  18.530  1.00 14.16    -0.358 OA
HETATM   64  HO6 RAP A 108       1.725   5.827  18.564  1.00 13.32     0.213 HD
ENDBRANCH  16  63
BRANCH  34  65
HETATM   65  O9  RAP A 108       5.580  17.978  11.154  1.00 23.09    -0.344 OA
HETATM   66  C51 RAP A 108       6.554  17.864  12.132  1.00 19.04     0.175 C 
ENDBRANCH  34  65
BRANCH  23  67
HETATM   67  O7  RAP A 108      -1.289  11.186  17.652  1.00 20.17    -0.350 OA
HETATM   68  C50 RAP A 108      -1.440  11.931  18.818  1.00 28.36     0.175 C 
ENDBRANCH  23  67
TORSDOF 9
ENDMDL
