MODEL 1
REMARK VINA RESULT:   -10.804      0.000      0.000
REMARK INTER + INTRA:         -17.864
REMARK INTER:                 -15.541
REMARK INTRA:                  -2.322
REMARK UNBOUND:                -2.322
REMARK  9 active torsions:
REMARK  status: ('A' for Active; 'I' for Inactive)
REMARK    1  A    between atoms: O6_12  and  C10_19 
REMARK    2  A    between atoms: O7_14  and  C16_29 
REMARK    3  A    between atoms: O9_18  and  C27_40 
REMARK    4  A    between atoms: O10_20  and  C28_41 
REMARK    5  A    between atoms: O12_24  and  C39_52 
REMARK    6  A    between atoms: O13_26  and  C40_53 
REMARK    7  A    between atoms: C34_47  and  C35_48 
REMARK    8  A    between atoms: C35_48  and  C36_49 
REMARK    9  A    between atoms: C36_49  and  C37_50 
ROOT
HETATM    1  C1  RAP A 108       4.706   8.421  12.928  1.00  5.98     0.292 C 
HETATM    2  O1  RAP A 108       4.382   9.514  13.778  1.00  9.08    -0.302 OA
HETATM    3  C2  RAP A 108       4.207   7.003  13.204  1.00  6.42     0.171 C 
HETATM    4  O2  RAP A 108       5.435   8.636  11.963  1.00 14.08    -0.262 OA
HETATM    5  C3  RAP A 108       3.712   6.338  11.928  1.00  5.50     0.033 C 
HETATM    6  O3  RAP A 108       4.585   6.125  15.707  1.00 10.38    -0.264 OA
HETATM    7  C4  RAP A 108       2.356   6.846  11.460  1.00  4.49     0.004 C 
HETATM    8  O4  RAP A 108       1.798   5.306  16.550  1.00 10.60    -0.281 OA
HETATM    9  C5  RAP A 108       1.371   6.685  12.603  1.00  4.19     0.024 C 
HETATM   10  O5  RAP A 108       1.399   8.437  16.752  1.00 10.76    -0.332 OA
HETATM   11  C6  RAP A 108       1.833   7.433  13.816  1.00  3.25     0.105 C 
HETATM   12  N7  RAP A 108       3.143   6.888  14.207  1.00  8.46    -0.307 N 
HETATM   13  C8  RAP A 108       3.426   6.479  15.453  1.00 10.06     0.297 C 
HETATM   14  O8  RAP A 108       3.932  17.672   8.874  1.00 18.31    -0.293 OA
HETATM   15  C9  RAP A 108       2.445   6.357  16.463  1.00 11.13     0.279 C 
HETATM   16  C10 RAP A 108       2.153   7.486  17.468  1.00 16.59     0.246 C 
HETATM   17  C11 RAP A 108       3.459   8.179  18.033  1.00 10.40     0.059 C 
HETATM   18  O11 RAP A 108       2.397  10.710  11.930  1.00  9.49    -0.296 OA
HETATM   19  C12 RAP A 108       3.121   9.490  18.779  1.00 12.17     0.008 C 
HETATM   20  C13 RAP A 108       2.206  10.363  17.932  1.00 12.80     0.030 C 
HETATM   21  C14 RAP A 108       1.006   9.614  17.362  1.00 10.37     0.121 C 
HETATM   22  C15 RAP A 108       0.369  10.434  16.254  1.00  5.94     0.064 C 
HETATM   23  C16 RAP A 108      -0.360  11.704  16.675  1.00  9.79     0.136 C 
HETATM   24  C17 RAP A 108      -0.914  12.445  15.477  1.00 15.52    -0.017 C 
HETATM   25  C18 RAP A 108      -0.406  13.633  15.178  1.00 14.38    -0.006 C 
HETATM   26  C19 RAP A 108      -0.818  14.457  14.032  1.00  9.73    -0.001 C 
HETATM   27  C20 RAP A 108      -0.270  15.653  13.869  1.00 10.26    -0.000 C 
HETATM   28  C21 RAP A 108      -0.573  16.477  12.684  1.00 11.40    -0.005 C 
HETATM   29  C22 RAP A 108       0.112  17.570  12.404  1.00 17.77    -0.026 C 
HETATM   30  C23 RAP A 108      -0.080  18.394  11.150  1.00 15.64     0.022 C 
HETATM   31  C24 RAP A 108       1.276  18.470  10.468  1.00 14.68     0.012 C 
HETATM   32  C25 RAP A 108       1.994  17.160  10.202  1.00 11.87     0.061 C 
HETATM   33  C26 RAP A 108       3.483  17.395   9.983  1.00 11.65     0.180 C 
HETATM   34  C27 RAP A 108       4.385  17.255  11.205  1.00  8.13     0.203 C 
HETATM   35  C28 RAP A 108       4.806  15.781  11.504  1.00 10.80     0.163 C 
HETATM   36  C29 RAP A 108       3.738  14.978  12.272  1.00  9.60    -0.019 C 
HETATM   37  C30 RAP A 108       3.044  13.982  11.722  1.00  8.55    -0.025 C 
HETATM   38  C31 RAP A 108       1.987  13.062  12.349  1.00  8.43     0.079 C 
HETATM   39  C32 RAP A 108       2.607  11.696  12.644  1.00 10.69     0.157 C 
HETATM   40  C33 RAP A 108       3.546  11.642  13.844  1.00  6.51     0.095 C 
HETATM   41  C34 RAP A 108       4.788  10.821  13.567  1.00  9.62     0.132 C 
HETATM   42  C43 RAP A 108       4.367   7.267  18.911  1.00 11.25     0.005 C 
HETATM   43  C44 RAP A 108      -2.059  11.741  14.727  1.00 14.40     0.029 C 
HETATM   44  C45 RAP A 108      -0.595  19.786  11.483  1.00  9.23     0.005 C 
HETATM   45  C46 RAP A 108       1.380  16.410   9.017  1.00 15.99     0.008 C 
HETATM   46  C47 RAP A 108       3.531  15.428  13.706  1.00 14.60     0.029 C 
HETATM   47  C48 RAP A 108       0.822  12.899  11.360  1.00  9.37     0.013 C 
ENDROOT
BRANCH  41  48
HETATM   48  C35 RAP A 108       6.023  11.029  14.467  1.00  9.58     0.028 C 
HETATM   49  C49 RAP A 108       5.658  11.111  15.922  1.00  8.29     0.003 C 
BRANCH  48  50
HETATM   50  C36 RAP A 108       6.840  12.250  14.051  1.00 10.31     0.003 C 
BRANCH  50  51
HETATM   51  C37 RAP A 108       7.470  12.231  12.656  1.00 22.90     0.003 C 
HETATM   52  C38 RAP A 108       7.777  13.661  12.198  1.00 14.17     0.032 C 
HETATM   53  C39 RAP A 108       8.302  13.729  10.763  1.00 34.20     0.142 C 
HETATM   54  C40 RAP A 108       9.527  12.766  10.594  1.00 38.24     0.138 C 
HETATM   55  C41 RAP A 108       9.245  11.332  11.083  1.00 16.32     0.032 C 
HETATM   56  C42 RAP A 108       8.702  11.339  12.505  1.00 14.05     0.003 C 
BRANCH  53  57
HETATM   57  O12 RAP A 108       8.691  15.061  10.543  1.00 30.82    -0.352 OA
HETATM   58  C52 RAP A 108       9.658  15.577  11.392  1.00 28.14     0.174 C 
ENDBRANCH  53  57
BRANCH  54  59
HETATM   59  O13 RAP A 108       9.903  12.725   9.219  1.00 28.84    -0.382 OA
HETATM   60  HO3 RAP A 108       9.581  11.907   8.818  1.00 13.32     0.210 HD
ENDBRANCH  54  59
ENDBRANCH  50  51
ENDBRANCH  48  50
ENDBRANCH  41  48
BRANCH  35  61
HETATM   61  O10 RAP A 108       5.081  15.146  10.248  1.00 12.16    -0.378 OA
HETATM   62  HO1 RAP A 108       5.377  14.232  10.369  1.00 13.32     0.211 HD
ENDBRANCH  35  61
BRANCH  16  63
HETATM   63  O6  RAP A 108       1.403   6.948  18.560  1.00 14.16    -0.358 OA
HETATM   64  HO6 RAP A 108       0.925   6.176  18.242  1.00 13.32     0.213 HD
ENDBRANCH  16  63
BRANCH  34  65
HETATM   65  O9  RAP A 108       5.568  17.973  10.974  1.00 23.09    -0.344 OA
HETATM   66  C51 RAP A 108       6.545  17.844  11.946  1.00 19.04     0.175 C 
ENDBRANCH  34  65
BRANCH  23  67
HETATM   67  O7  RAP A 108      -1.407  11.335  17.517  1.00 20.17    -0.350 OA
HETATM   68  C50 RAP A 108      -1.571  12.100  18.668  1.00 28.36     0.175 C 
ENDBRANCH  23  67
TORSDOF 9
ENDMDL
MODEL 2
REMARK VINA RESULT:    -9.999      1.516      1.972
REMARK INTER + INTRA:         -16.705
REMARK INTER:                 -14.550
REMARK INTRA:                  -2.155
REMARK UNBOUND:                -2.322
REMARK  9 active torsions:
REMARK  status: ('A' for Active; 'I' for Inactive)
REMARK    1  A    between atoms: O6_12  and  C10_19 
REMARK    2  A    between atoms: O7_14  and  C16_29 
REMARK    3  A    between atoms: O9_18  and  C27_40 
REMARK    4  A    between atoms: O10_20  and  C28_41 
REMARK    5  A    between atoms: O12_24  and  C39_52 
REMARK    6  A    between atoms: O13_26  and  C40_53 
REMARK    7  A    between atoms: C34_47  and  C35_48 
REMARK    8  A    between atoms: C35_48  and  C36_49 
REMARK    9  A    between atoms: C36_49  and  C37_50 
ROOT
HETATM    1  C1  RAP A 108       4.733   8.384  12.879  1.00  5.98     0.292 C 
HETATM    2  O1  RAP A 108       4.425   9.458  13.759  1.00  9.08    -0.302 OA
HETATM    3  C2  RAP A 108       4.251   6.957  13.140  1.00  6.42     0.171 C 
HETATM    4  O2  RAP A 108       5.435   8.622  11.899  1.00 14.08    -0.262 OA
HETATM    5  C3  RAP A 108       3.727   6.314  11.864  1.00  5.50     0.033 C 
HETATM    6  O3  RAP A 108       4.701   6.033  15.614  1.00 10.38    -0.264 OA
HETATM    7  C4  RAP A 108       2.355   6.822  11.443  1.00  4.49     0.004 C 
HETATM    8  O4  RAP A 108       1.944   5.179  16.515  1.00 10.60    -0.281 OA
HETATM    9  C5  RAP A 108       1.402   6.631  12.609  1.00  4.19     0.024 C 
HETATM   10  O5  RAP A 108       1.530   8.302  16.789  1.00 10.76    -0.332 OA
HETATM   11  C6  RAP A 108       1.891   7.358  13.823  1.00  3.25     0.105 C 
HETATM   12  N7  RAP A 108       3.216   6.816  14.169  1.00  8.46    -0.307 N 
HETATM   13  C8  RAP A 108       3.534   6.384  15.399  1.00 10.06     0.297 C 
HETATM   14  O8  RAP A 108       3.791  17.707   9.030  1.00 18.31    -0.293 OA
HETATM   15  C9  RAP A 108       2.582   6.236  16.432  1.00 11.13     0.279 C 
HETATM   16  C10 RAP A 108       2.309   7.343  17.466  1.00 16.59     0.246 C 
HETATM   17  C11 RAP A 108       3.626   8.033  18.010  1.00 10.40     0.059 C 
HETATM   18  O11 RAP A 108       2.384  10.676  11.988  1.00  9.49    -0.296 OA
HETATM   19  C12 RAP A 108       3.299   9.327  18.790  1.00 12.17     0.008 C 
HETATM   20  C13 RAP A 108       2.356  10.211  17.985  1.00 12.80     0.030 C 
HETATM   21  C14 RAP A 108       1.146   9.464  17.433  1.00 10.37     0.121 C 
HETATM   22  C15 RAP A 108       0.474  10.301  16.359  1.00  5.94     0.064 C 
HETATM   23  C16 RAP A 108      -0.251  11.558  16.824  1.00  9.79     0.136 C 
HETATM   24  C17 RAP A 108      -0.842  12.317  15.656  1.00 15.52    -0.017 C 
HETATM   25  C18 RAP A 108      -0.350  13.515  15.366  1.00 14.38    -0.006 C 
HETATM   26  C19 RAP A 108      -0.798  14.358  14.249  1.00  9.73    -0.001 C 
HETATM   27  C20 RAP A 108      -0.263  15.561  14.095  1.00 10.26    -0.000 C 
HETATM   28  C21 RAP A 108      -0.602  16.406  12.935  1.00 11.40    -0.005 C 
HETATM   29  C22 RAP A 108       0.067  17.509  12.658  1.00 17.77    -0.026 C 
HETATM   30  C23 RAP A 108      -0.163  18.355  11.426  1.00 15.64     0.022 C 
HETATM   31  C24 RAP A 108       1.173  18.455  10.710  1.00 14.68     0.012 C 
HETATM   32  C25 RAP A 108       1.893  17.156  10.399  1.00 11.87     0.061 C 
HETATM   33  C26 RAP A 108       3.374  17.405  10.145  1.00 11.65     0.180 C 
HETATM   34  C27 RAP A 108       4.309  17.248  11.339  1.00  8.13     0.203 C 
HETATM   35  C28 RAP A 108       4.747  15.770  11.598  1.00 10.80     0.163 C 
HETATM   36  C29 RAP A 108       3.706  14.946  12.378  1.00  9.60    -0.019 C 
HETATM   37  C30 RAP A 108       3.004  13.956  11.828  1.00  8.55    -0.025 C 
HETATM   38  C31 RAP A 108       1.969  13.016  12.464  1.00  8.43     0.079 C 
HETATM   39  C32 RAP A 108       2.606  11.649  12.715  1.00 10.69     0.157 C 
HETATM   40  C33 RAP A 108       3.577  11.578  13.889  1.00  6.51     0.095 C 
HETATM   41  C34 RAP A 108       4.817  10.771  13.562  1.00  9.62     0.132 C 
HETATM   42  C43 RAP A 108       4.563   7.111  18.845  1.00 11.25     0.005 C 
HETATM   43  C44 RAP A 108      -2.002  11.620  14.923  1.00 14.40     0.029 C 
HETATM   44  C45 RAP A 108      -0.678  19.738  11.800  1.00  9.23     0.005 C 
HETATM   45  C46 RAP A 108       1.252  16.424   9.217  1.00 15.99     0.008 C 
HETATM   46  C47 RAP A 108       3.534  15.366  13.825  1.00 14.60     0.029 C 
HETATM   47  C48 RAP A 108       0.779  12.865  11.504  1.00  9.37     0.013 C 
ENDROOT
BRANCH  41  48
HETATM   48  C35 RAP A 108       6.074  10.970  14.433  1.00  9.58     0.028 C 
HETATM   49  C49 RAP A 108       5.733  11.373  15.839  1.00  8.29     0.003 C 
BRANCH  48  50
HETATM   50  C36 RAP A 108       7.052  11.966  13.813  1.00 10.31     0.003 C 
BRANCH  50  51
HETATM   51  C37 RAP A 108       7.449  13.179  14.659  1.00 22.90     0.003 C 
HETATM   52  C38 RAP A 108       8.915  13.059  15.093  1.00 14.17     0.032 C 
HETATM   53  C39 RAP A 108       9.350  14.178  16.040  1.00 34.20     0.142 C 
HETATM   54  C40 RAP A 108       9.022  15.574  15.407  1.00 38.24     0.138 C 
HETATM   55  C41 RAP A 108       7.560  15.698  14.932  1.00 16.32     0.032 C 
HETATM   56  C42 RAP A 108       7.186  14.541  14.017  1.00 14.05     0.003 C 
BRANCH  53  57
HETATM   57  O12 RAP A 108      10.736  14.035  16.217  1.00 30.82    -0.352 OA
HETATM   58  C52 RAP A 108      11.497  13.859  15.072  1.00 28.14     0.174 C 
ENDBRANCH  53  57
BRANCH  54  59
HETATM   59  O13 RAP A 108       9.289  16.597  16.365  1.00 28.84    -0.382 OA
HETATM   60  HO3 RAP A 108       8.460  17.004  16.645  1.00 13.32     0.210 HD
ENDBRANCH  54  59
ENDBRANCH  50  51
ENDBRANCH  48  50
ENDBRANCH  41  48
BRANCH  35  61
HETATM   61  O10 RAP A 108       4.993  15.163  10.323  1.00 12.16    -0.378 OA
HETATM   62  HO1 RAP A 108       4.957  15.813   9.606  1.00 13.32     0.211 HD
ENDBRANCH  35  61
BRANCH  16  63
HETATM   63  O6  RAP A 108       1.592   6.778  18.567  1.00 14.16    -0.358 OA
HETATM   64  HO6 RAP A 108       1.693   7.366  19.321  1.00 13.32     0.213 HD
ENDBRANCH  16  63
BRANCH  34  65
HETATM   65  O9  RAP A 108       5.480  17.978  11.091  1.00 23.09    -0.344 OA
HETATM   66  C51 RAP A 108       6.432  17.943  12.096  1.00 19.04     0.175 C 
ENDBRANCH  34  65
BRANCH  23  67
HETATM   67  O7  RAP A 108      -1.273  11.164  17.686  1.00 20.17    -0.350 OA
HETATM   68  C50 RAP A 108      -1.439  11.932  18.835  1.00 28.36     0.175 C 
ENDBRANCH  23  67
TORSDOF 9
ENDMDL
MODEL 3
REMARK VINA RESULT:    -9.409      0.884      1.341
REMARK INTER + INTRA:         -15.857
REMARK INTER:                 -13.784
REMARK INTRA:                  -2.073
REMARK UNBOUND:                -2.322
REMARK  9 active torsions:
REMARK  status: ('A' for Active; 'I' for Inactive)
REMARK    1  A    between atoms: O6_12  and  C10_19 
REMARK    2  A    between atoms: O7_14  and  C16_29 
REMARK    3  A    between atoms: O9_18  and  C27_40 
REMARK    4  A    between atoms: O10_20  and  C28_41 
REMARK    5  A    between atoms: O12_24  and  C39_52 
REMARK    6  A    between atoms: O13_26  and  C40_53 
REMARK    7  A    between atoms: C34_47  and  C35_48 
REMARK    8  A    between atoms: C35_48  and  C36_49 
REMARK    9  A    between atoms: C36_49  and  C37_50 
ROOT
HETATM    1  C1  RAP A 108       4.572   8.503  13.014  1.00  5.98     0.292 C 
HETATM    2  O1  RAP A 108       4.127   9.601  13.798  1.00  9.08    -0.302 OA
HETATM    3  C2  RAP A 108       4.191   7.060  13.346  1.00  6.42     0.171 C 
HETATM    4  O2  RAP A 108       5.310   8.735  12.059  1.00 14.08    -0.262 OA
HETATM    5  C3  RAP A 108       3.798   6.294  12.092  1.00  5.50     0.033 C 
HETATM    6  O3  RAP A 108       4.565   6.340  15.899  1.00 10.38    -0.264 OA
HETATM    7  C4  RAP A 108       2.418   6.656  11.562  1.00  4.49     0.004 C 
HETATM    8  O4  RAP A 108       1.836   5.316  16.706  1.00 10.60    -0.281 OA
HETATM    9  C5  RAP A 108       1.415   6.462  12.685  1.00  4.19     0.024 C 
HETATM   10  O5  RAP A 108       1.156   8.405  16.739  1.00 10.76    -0.332 OA
HETATM   11  C6  RAP A 108       1.770   7.305  13.871  1.00  3.25     0.105 C 
HETATM   12  N7  RAP A 108       3.110   6.899  14.325  1.00  8.46    -0.307 N 
HETATM   13  C8  RAP A 108       3.388   6.576  15.597  1.00 10.06     0.297 C 
HETATM   14  O8  RAP A 108       3.118  17.444   8.479  1.00 18.31    -0.293 OA
HETATM   15  C9  RAP A 108       2.390   6.416  16.584  1.00 11.13     0.279 C 
HETATM   16  C10 RAP A 108       1.968   7.561  17.522  1.00 16.59     0.246 C 
HETATM   17  C11 RAP A 108       3.190   8.394  18.088  1.00 10.40     0.059 C 
HETATM   18  O11 RAP A 108       2.104  10.527  11.838  1.00  9.49    -0.296 OA
HETATM   19  C12 RAP A 108       2.714   9.703  18.758  1.00 12.17     0.008 C 
HETATM   20  C13 RAP A 108       1.753  10.450  17.843  1.00 12.80     0.030 C 
HETATM   21  C14 RAP A 108       0.642   9.570  17.279  1.00 10.37     0.121 C 
HETATM   22  C15 RAP A 108      -0.028  10.276  16.114  1.00  5.94     0.064 C 
HETATM   23  C16 RAP A 108      -0.879  11.495  16.450  1.00  9.79     0.136 C 
HETATM   24  C17 RAP A 108      -1.458  12.125  15.201  1.00 15.52    -0.017 C 
HETATM   25  C18 RAP A 108      -1.047  13.338  14.857  1.00 14.38    -0.006 C 
HETATM   26  C19 RAP A 108      -1.493  14.066  13.661  1.00  9.73    -0.001 C 
HETATM   27  C20 RAP A 108      -1.048  15.298  13.453  1.00 10.26    -0.000 C 
HETATM   28  C21 RAP A 108      -1.384  16.034  12.220  1.00 11.40    -0.005 C 
HETATM   29  C22 RAP A 108      -0.789  17.169  11.905  1.00 17.77    -0.026 C 
HETATM   30  C23 RAP A 108      -1.012  17.912  10.605  1.00 15.64     0.022 C 
HETATM   31  C24 RAP A 108       0.352  18.077   9.959  1.00 14.68     0.012 C 
HETATM   32  C25 RAP A 108       1.191  16.825   9.778  1.00 11.87     0.061 C 
HETATM   33  C26 RAP A 108       2.660  17.181   9.588  1.00 11.65     0.180 C 
HETATM   34  C27 RAP A 108       3.531  17.181  10.840  1.00  8.13     0.203 C 
HETATM   35  C28 RAP A 108       4.071  15.766  11.225  1.00 10.80     0.163 C 
HETATM   36  C29 RAP A 108       3.053  14.908  12.002  1.00  9.60    -0.019 C 
HETATM   37  C30 RAP A 108       2.467  13.829  11.484  1.00  8.55    -0.025 C 
HETATM   38  C31 RAP A 108       1.476  12.849  12.127  1.00  8.43     0.079 C 
HETATM   39  C32 RAP A 108       2.204  11.560  12.507  1.00 10.69     0.157 C 
HETATM   40  C33 RAP A 108       3.105  11.647  13.734  1.00  6.51     0.095 C 
HETATM   41  C34 RAP A 108       4.423  10.928  13.533  1.00  9.62     0.132 C 
HETATM   42  C43 RAP A 108       4.146   7.609  19.035  1.00 11.25     0.005 C 
HETATM   43  C44 RAP A 108      -2.512  11.287  14.457  1.00 14.40     0.029 C 
HETATM   44  C45 RAP A 108      -1.658  19.267  10.854  1.00  9.23     0.005 C 
HETATM   45  C46 RAP A 108       0.683  15.967   8.616  1.00 15.99     0.008 C 
HETATM   46  C47 RAP A 108       2.762  15.406  13.405  1.00 14.60     0.029 C 
HETATM   47  C48 RAP A 108       0.361  12.536  11.117  1.00  9.37     0.013 C 
ENDROOT
BRANCH  41  48
HETATM   48  C35 RAP A 108       5.605  11.288  14.455  1.00  9.58     0.028 C 
HETATM   49  C49 RAP A 108       5.379  10.840  15.870  1.00  8.29     0.003 C 
BRANCH  48  50
HETATM   50  C36 RAP A 108       5.935  12.779  14.412  1.00 10.31     0.003 C 
BRANCH  50  51
HETATM   51  C37 RAP A 108       7.117  13.211  13.542  1.00 22.90     0.003 C 
HETATM   52  C38 RAP A 108       7.973  11.994  13.175  1.00 14.17     0.032 C 
HETATM   53  C39 RAP A 108       9.240  12.365  12.402  1.00 34.20     0.142 C 
HETATM   54  C40 RAP A 108       8.869  13.239  11.154  1.00 38.24     0.138 C 
HETATM   55  C41 RAP A 108       7.978  14.448  11.502  1.00 16.32     0.032 C 
HETATM   56  C42 RAP A 108       6.753  14.011  12.291  1.00 14.05     0.003 C 
BRANCH  53  57
HETATM   57  O12 RAP A 108       9.829  11.156  11.996  1.00 30.82    -0.352 OA
HETATM   58  C52 RAP A 108      10.303  10.326  12.999  1.00 28.14     0.174 C 
ENDBRANCH  53  57
BRANCH  54  59
HETATM   59  O13 RAP A 108      10.068  13.705  10.537  1.00 28.84    -0.382 OA
HETATM   60  HO3 RAP A 108      10.050  14.668  10.477  1.00 13.32     0.210 HD
ENDBRANCH  54  59
ENDBRANCH  50  51
ENDBRANCH  48  50
ENDBRANCH  41  48
BRANCH  35  61
HETATM   61  O10 RAP A 108       4.440  15.099  10.010  1.00 12.16    -0.378 OA
HETATM   62  HO1 RAP A 108       4.064  15.540   9.234  1.00 13.32     0.211 HD
ENDBRANCH  35  61
BRANCH  16  63
HETATM   63  O6  RAP A 108       1.234   7.010  18.620  1.00 14.16    -0.358 OA
HETATM   64  HO6 RAP A 108       0.670   7.701  18.978  1.00 13.32     0.213 HD
ENDBRANCH  16  63
BRANCH  34  65
HETATM   65  O9  RAP A 108       4.653  17.989  10.606  1.00 23.09    -0.344 OA
HETATM   66  C51 RAP A 108       4.623  19.240  11.199  1.00 19.04     0.175 C 
ENDBRANCH  34  65
BRANCH  23  67
HETATM   67  O7  RAP A 108      -1.916  11.074  17.281  1.00 20.17    -0.350 OA
HETATM   68  C50 RAP A 108      -2.259  11.932  18.321  1.00 28.36     0.175 C 
ENDBRANCH  23  67
TORSDOF 9
ENDMDL
MODEL 4
REMARK VINA RESULT:    -8.210      1.860      3.308
REMARK INTER + INTRA:         -14.133
REMARK INTER:                 -12.308
REMARK INTRA:                  -1.825
REMARK UNBOUND:                -2.322
REMARK  9 active torsions:
REMARK  status: ('A' for Active; 'I' for Inactive)
REMARK    1  A    between atoms: O6_12  and  C10_19 
REMARK    2  A    between atoms: O7_14  and  C16_29 
REMARK    3  A    between atoms: O9_18  and  C27_40 
REMARK    4  A    between atoms: O10_20  and  C28_41 
REMARK    5  A    between atoms: O12_24  and  C39_52 
REMARK    6  A    between atoms: O13_26  and  C40_53 
REMARK    7  A    between atoms: C34_47  and  C35_48 
REMARK    8  A    between atoms: C35_48  and  C36_49 
REMARK    9  A    between atoms: C36_49  and  C37_50 
ROOT
HETATM    1  C1  RAP A 108       4.488   8.859  12.832  1.00  5.98     0.292 C 
HETATM    2  O1  RAP A 108       4.027   9.965  13.596  1.00  9.08    -0.302 OA
HETATM    3  C2  RAP A 108       4.118   7.418  13.183  1.00  6.42     0.171 C 
HETATM    4  O2  RAP A 108       5.232   9.084  11.879  1.00 14.08    -0.262 OA
HETATM    5  C3  RAP A 108       3.741   6.629  11.938  1.00  5.50     0.033 C 
HETATM    6  O3  RAP A 108       4.479   6.739  15.749  1.00 10.38    -0.264 OA
HETATM    7  C4  RAP A 108       2.362   6.971  11.392  1.00  4.49     0.004 C 
HETATM    8  O4  RAP A 108       1.753   5.703  16.551  1.00 10.60    -0.281 OA
HETATM    9  C5  RAP A 108       1.352   6.784  12.510  1.00  4.19     0.024 C 
HETATM   10  O5  RAP A 108       1.046   8.785  16.533  1.00 10.76    -0.332 OA
HETATM   11  C6  RAP A 108       1.691   7.648  13.686  1.00  3.25     0.105 C 
HETATM   12  N7  RAP A 108       3.031   7.262  14.156  1.00  8.46    -0.307 N 
HETATM   13  C8  RAP A 108       3.302   6.960  15.435  1.00 10.06     0.297 C 
HETATM   14  O8  RAP A 108       2.988  17.717   8.153  1.00 18.31    -0.293 OA
HETATM   15  C9  RAP A 108       2.299   6.806  16.417  1.00 11.13     0.279 C 
HETATM   16  C10 RAP A 108       1.859   7.961  17.334  1.00 16.59     0.246 C 
HETATM   17  C11 RAP A 108       3.069   8.813  17.897  1.00 10.40     0.059 C 
HETATM   18  O11 RAP A 108       2.011  10.842  11.608  1.00  9.49    -0.296 OA
HETATM   19  C12 RAP A 108       2.576  10.128  18.543  1.00 12.17     0.008 C 
HETATM   20  C13 RAP A 108       1.616  10.852  17.610  1.00 12.80     0.030 C 
HETATM   21  C14 RAP A 108       0.517   9.954  17.051  1.00 10.37     0.121 C 
HETATM   22  C15 RAP A 108      -0.151  10.636  15.870  1.00  5.94     0.064 C 
HETATM   23  C16 RAP A 108      -1.015  11.852  16.182  1.00  9.79     0.136 C 
HETATM   24  C17 RAP A 108      -1.590  12.458  14.920  1.00 15.52    -0.017 C 
HETATM   25  C18 RAP A 108      -1.188  13.670  14.560  1.00 14.38    -0.006 C 
HETATM   26  C19 RAP A 108      -1.631  14.376  13.350  1.00  9.73    -0.001 C 
HETATM   27  C20 RAP A 108      -1.196  15.608  13.126  1.00 10.26    -0.000 C 
HETATM   28  C21 RAP A 108      -1.529  16.322  11.881  1.00 11.40    -0.005 C 
HETATM   29  C22 RAP A 108      -0.942  17.458  11.553  1.00 17.77    -0.026 C 
HETATM   30  C23 RAP A 108      -1.162  18.179  10.240  1.00 15.64     0.022 C 
HETATM   31  C24 RAP A 108       0.206  18.347   9.602  1.00 14.68     0.012 C 
HETATM   32  C25 RAP A 108       1.057  17.100   9.446  1.00 11.87     0.061 C 
HETATM   33  C26 RAP A 108       2.524  17.466   9.262  1.00 11.65     0.180 C 
HETATM   34  C27 RAP A 108       3.386  17.493  10.520  1.00  8.13     0.203 C 
HETATM   35  C28 RAP A 108       3.935  16.089  10.930  1.00 10.80     0.163 C 
HETATM   36  C29 RAP A 108       2.919  15.234  11.713  1.00  9.60    -0.019 C 
HETATM   37  C30 RAP A 108       2.347  14.142  11.207  1.00  8.55    -0.025 C 
HETATM   38  C31 RAP A 108       1.360  13.163  11.857  1.00  8.43     0.079 C 
HETATM   39  C32 RAP A 108       2.096  11.886  12.262  1.00 10.69     0.157 C 
HETATM   40  C33 RAP A 108       2.987  11.999  13.494  1.00  6.51     0.095 C 
HETATM   41  C34 RAP A 108       4.313  11.290  13.313  1.00  9.62     0.132 C 
HETATM   42  C43 RAP A 108       4.025   8.052  18.863  1.00 11.25     0.005 C 
HETATM   43  C44 RAP A 108      -2.631  11.599  14.180  1.00 14.40     0.029 C 
HETATM   44  C45 RAP A 108      -1.822  19.532  10.464  1.00  9.23     0.005 C 
HETATM   45  C46 RAP A 108       0.566  16.220   8.294  1.00 15.99     0.008 C 
HETATM   46  C47 RAP A 108       2.613  15.750  13.106  1.00 14.60     0.029 C 
HETATM   47  C48 RAP A 108       0.256  12.825  10.843  1.00  9.37     0.013 C 
ENDROOT
BRANCH  41  48
HETATM   48  C35 RAP A 108       5.485  11.674  14.239  1.00  9.58     0.028 C 
HETATM   49  C49 RAP A 108       6.595  10.664  14.200  1.00  8.29     0.003 C 
BRANCH  48  50
HETATM   50  C36 RAP A 108       5.028  11.912  15.677  1.00 10.31     0.003 C 
BRANCH  50  51
HETATM   51  C37 RAP A 108       4.867  13.365  16.131  1.00 22.90     0.003 C 
HETATM   52  C38 RAP A 108       3.944  13.435  17.353  1.00 14.17     0.032 C 
HETATM   53  C39 RAP A 108       3.642  14.869  17.792  1.00 34.20     0.142 C 
HETATM   54  C40 RAP A 108       4.980  15.658  18.002  1.00 38.24     0.138 C 
HETATM   55  C41 RAP A 108       5.935  15.568  16.795  1.00 16.32     0.032 C 
HETATM   56  C42 RAP A 108       6.171  14.118  16.395  1.00 14.05     0.003 C 
BRANCH  53  57
HETATM   57  O12 RAP A 108       2.934  14.774  19.002  1.00 30.82    -0.352 OA
HETATM   58  C52 RAP A 108       3.192  13.664  19.791  1.00 28.14     0.174 C 
ENDBRANCH  53  57
BRANCH  54  59
HETATM   59  O13 RAP A 108       4.679  17.028  18.258  1.00 28.84    -0.382 OA
HETATM   60  HO3 RAP A 108       5.340  17.591  17.833  1.00 13.32     0.210 HD
ENDBRANCH  54  59
ENDBRANCH  50  51
ENDBRANCH  48  50
ENDBRANCH  41  48
BRANCH  35  61
HETATM   61  O10 RAP A 108       4.320  15.408   9.729  1.00 12.16    -0.378 OA
HETATM   62  HO1 RAP A 108       3.567  14.957   9.319  1.00 13.32     0.211 HD
ENDBRANCH  35  61
BRANCH  16  63
HETATM   63  O6  RAP A 108       1.122   7.420  18.435  1.00 14.16    -0.358 OA
HETATM   64  HO6 RAP A 108       0.705   6.604  18.142  1.00 13.32     0.213 HD
ENDBRANCH  16  63
BRANCH  34  65
HETATM   65  O9  RAP A 108       4.502  18.309  10.282  1.00 23.09    -0.344 OA
HETATM   66  C51 RAP A 108       5.403  18.410  11.329  1.00 19.04     0.175 C 
ENDBRANCH  34  65
BRANCH  23  67
HETATM   67  O7  RAP A 108      -2.055  11.434  17.011  1.00 20.17    -0.350 OA
HETATM   68  C50 RAP A 108      -2.402  12.297  18.046  1.00 28.36     0.175 C 
ENDBRANCH  23  67
TORSDOF 9
ENDMDL
