MODEL 1
REMARK VINA RESULT:   -10.855      0.000      0.000
REMARK INTER + INTRA:         -17.922
REMARK INTER:                 -15.615
REMARK INTRA:                  -2.307
REMARK UNBOUND:                -2.307
REMARK  9 active torsions:
REMARK  status: ('A' for Active; 'I' for Inactive)
REMARK    1  A    between atoms: O6_12  and  C10_19 
REMARK    2  A    between atoms: O7_14  and  C16_29 
REMARK    3  A    between atoms: O9_18  and  C27_40 
REMARK    4  A    between atoms: O10_20  and  C28_41 
REMARK    5  A    between atoms: O12_24  and  C39_52 
REMARK    6  A    between atoms: O13_26  and  C40_53 
REMARK    7  A    between atoms: C34_47  and  C35_48 
REMARK    8  A    between atoms: C35_48  and  C36_49 
REMARK    9  A    between atoms: C36_49  and  C37_50 
ROOT
HETATM    1  C1  RAP A 108       4.818   8.399  12.950  1.00  5.98     0.292 C 
HETATM    2  O1  RAP A 108       4.466   9.477  13.807  1.00  9.08    -0.302 OA
HETATM    3  C2  RAP A 108       4.339   6.970  13.204  1.00  6.42     0.171 C 
HETATM    4  O2  RAP A 108       5.556   8.635  11.996  1.00 14.08    -0.262 OA
HETATM    5  C3  RAP A 108       3.871   6.311  11.915  1.00  5.50     0.033 C 
HETATM    6  O3  RAP A 108       4.700   6.071  15.702  1.00 10.38    -0.264 OA
HETATM    7  C4  RAP A 108       2.513   6.802  11.436  1.00  4.49     0.004 C 
HETATM    8  O4  RAP A 108       1.917   5.198  16.501  1.00 10.60    -0.281 OA
HETATM    9  C5  RAP A 108       1.516   6.612  12.565  1.00  4.19     0.024 C 
HETATM   10  O5  RAP A 108       1.464   8.319  16.732  1.00 10.76    -0.332 OA
HETATM   11  C6  RAP A 108       1.951   7.354  13.791  1.00  3.25     0.105 C 
HETATM   12  N7  RAP A 108       3.265   6.827  14.193  1.00  8.46    -0.307 N 
HETATM   13  C8  RAP A 108       3.539   6.408  15.438  1.00 10.06     0.297 C 
HETATM   14  O8  RAP A 108       3.944  17.679   8.985  1.00 18.31    -0.293 OA
HETATM   15  C9  RAP A 108       2.548   6.260  16.434  1.00 11.13     0.279 C 
HETATM   16  C10 RAP A 108       2.225   7.373  17.447  1.00 16.59     0.246 C 
HETATM   17  C11 RAP A 108       3.513   8.080  18.036  1.00 10.40     0.059 C 
HETATM   18  O11 RAP A 108       2.485  10.661  11.947  1.00  9.49    -0.296 OA
HETATM   19  C12 RAP A 108       3.144   9.378  18.792  1.00 12.17     0.008 C 
HETATM   20  C13 RAP A 108       2.225  10.245  17.943  1.00 12.80     0.030 C 
HETATM   21  C14 RAP A 108       1.045   9.483  17.350  1.00 10.37     0.121 C 
HETATM   22  C15 RAP A 108       0.409  10.305  16.243  1.00  5.94     0.064 C 
HETATM   23  C16 RAP A 108      -0.346  11.558  16.668  1.00  9.79     0.136 C 
HETATM   24  C17 RAP A 108      -0.897  12.303  15.471  1.00 15.52    -0.017 C 
HETATM   25  C18 RAP A 108      -0.405  13.502  15.191  1.00 14.38    -0.006 C 
HETATM   26  C19 RAP A 108      -0.816  14.332  14.050  1.00  9.73    -0.001 C 
HETATM   27  C20 RAP A 108      -0.286  15.538  13.906  1.00 10.26    -0.000 C 
HETATM   28  C21 RAP A 108      -0.588  16.370  12.726  1.00 11.40    -0.005 C 
HETATM   29  C22 RAP A 108       0.082  17.477  12.467  1.00 17.77    -0.026 C 
HETATM   30  C23 RAP A 108      -0.107  18.311  11.218  1.00 15.64     0.022 C 
HETATM   31  C24 RAP A 108       1.255  18.417  10.555  1.00 14.68     0.012 C 
HETATM   32  C25 RAP A 108       1.998  17.122  10.283  1.00 11.87     0.061 C 
HETATM   33  C26 RAP A 108       3.486  17.383  10.086  1.00 11.65     0.180 C 
HETATM   34  C27 RAP A 108       4.375  17.245  11.317  1.00  8.13     0.203 C 
HETATM   35  C28 RAP A 108       4.816  15.774  11.606  1.00 10.80     0.163 C 
HETATM   36  C29 RAP A 108       3.752  14.946  12.352  1.00  9.60    -0.019 C 
HETATM   37  C30 RAP A 108       3.081  13.945  11.783  1.00  8.55    -0.025 C 
HETATM   38  C31 RAP A 108       2.031  13.001  12.386  1.00  8.43     0.079 C 
HETATM   39  C32 RAP A 108       2.670  11.642  12.675  1.00 10.69     0.157 C 
HETATM   40  C33 RAP A 108       3.594  11.590  13.886  1.00  6.51     0.095 C 
HETATM   41  C34 RAP A 108       4.854  10.792  13.615  1.00  9.62     0.132 C 
HETATM   42  C43 RAP A 108       4.425   7.174  18.916  1.00 11.25     0.005 C 
HETATM   43  C44 RAP A 108      -2.022  11.588  14.699  1.00 14.40     0.029 C 
HETATM   44  C45 RAP A 108      -0.649  19.692  11.560  1.00  9.23     0.005 C 
HETATM   45  C46 RAP A 108       1.411  16.375   9.084  1.00 15.99     0.008 C 
HETATM   46  C47 RAP A 108       3.520  15.377  13.788  1.00 14.60     0.029 C 
HETATM   47  C48 RAP A 108       0.881  12.830  11.382  1.00  9.37     0.013 C 
ENDROOT
BRANCH  41  48
HETATM   48  C35 RAP A 108       6.073  11.010  14.533  1.00  9.58     0.028 C 
HETATM   49  C49 RAP A 108       5.683  11.135  15.978  1.00  8.29     0.003 C 
BRANCH  48  50
HETATM   50  C36 RAP A 108       6.912  12.211  14.100  1.00 10.31     0.003 C 
BRANCH  50  51
HETATM   51  C37 RAP A 108       7.523  12.171  12.697  1.00 22.90     0.003 C 
HETATM   52  C38 RAP A 108       7.793  13.596  12.200  1.00 14.17     0.032 C 
HETATM   53  C39 RAP A 108       8.297  13.640  10.756  1.00 34.20     0.142 C 
HETATM   54  C40 RAP A 108       9.541  12.699  10.594  1.00 38.24     0.138 C 
HETATM   55  C41 RAP A 108       9.296  11.271  11.122  1.00 16.32     0.032 C 
HETATM   56  C42 RAP A 108       8.773  11.302  12.551  1.00 14.05     0.003 C 
BRANCH  53  57
HETATM   57  O12 RAP A 108       8.654  14.973  10.499  1.00 30.82    -0.352 OA
HETATM   58  C52 RAP A 108       9.484  15.587  11.424  1.00 28.14     0.174 C 
ENDBRANCH  53  57
BRANCH  54  59
HETATM   59  O13 RAP A 108       9.898  12.632   9.215  1.00 28.84    -0.382 OA
HETATM   60  HO3 RAP A 108      10.272  11.763   9.018  1.00 13.32     0.210 HD
ENDBRANCH  54  59
ENDBRANCH  50  51
ENDBRANCH  48  50
ENDBRANCH  41  48
BRANCH  35  61
HETATM   61  O10 RAP A 108       5.117  15.158  10.347  1.00 12.16    -0.378 OA
HETATM   62  HO1 RAP A 108       5.531  15.784   9.735  1.00 13.32     0.211 HD
ENDBRANCH  35  61
BRANCH  16  63
HETATM   63  O6  RAP A 108       1.471   6.811  18.524  1.00 14.16    -0.358 OA
HETATM   64  HO6 RAP A 108       0.958   7.516  18.929  1.00 13.32     0.213 HD
ENDBRANCH  16  63
BRANCH  34  65
HETATM   65  O9  RAP A 108       5.548  17.984  11.109  1.00 23.09    -0.344 OA
HETATM   66  C51 RAP A 108       6.518  17.855  12.089  1.00 19.04     0.175 C 
ENDBRANCH  34  65
BRANCH  23  67
HETATM   67  O7  RAP A 108      -1.397  11.163  17.493  1.00 20.17    -0.350 OA
HETATM   68  C50 RAP A 108      -1.610  11.934  18.632  1.00 28.36     0.175 C 
ENDBRANCH  23  67
TORSDOF 9
ENDMDL
MODEL 2
REMARK VINA RESULT:    -8.862      1.688      2.764
REMARK INTER + INTRA:         -15.054
REMARK INTER:                 -12.792
REMARK INTRA:                  -2.262
REMARK UNBOUND:                -2.307
REMARK  9 active torsions:
REMARK  status: ('A' for Active; 'I' for Inactive)
REMARK    1  A    between atoms: O6_12  and  C10_19 
REMARK    2  A    between atoms: O7_14  and  C16_29 
REMARK    3  A    between atoms: O9_18  and  C27_40 
REMARK    4  A    between atoms: O10_20  and  C28_41 
REMARK    5  A    between atoms: O12_24  and  C39_52 
REMARK    6  A    between atoms: O13_26  and  C40_53 
REMARK    7  A    between atoms: C34_47  and  C35_48 
REMARK    8  A    between atoms: C35_48  and  C36_49 
REMARK    9  A    between atoms: C36_49  and  C37_50 
ROOT
HETATM    1  C1  RAP A 108       4.562   8.728  12.771  1.00  5.98     0.292 C 
HETATM    2  O1  RAP A 108       4.137   9.826  13.567  1.00  9.08    -0.302 OA
HETATM    3  C2  RAP A 108       4.165   7.288  13.097  1.00  6.42     0.171 C 
HETATM    4  O2  RAP A 108       5.295   8.958  11.812  1.00 14.08    -0.262 OA
HETATM    5  C3  RAP A 108       3.752   6.535  11.841  1.00  5.50     0.033 C 
HETATM    6  O3  RAP A 108       4.551   6.545  15.642  1.00 10.38    -0.264 OA
HETATM    7  C4  RAP A 108       2.372   6.919  11.326  1.00  4.49     0.004 C 
HETATM    8  O4  RAP A 108       1.816   5.550  16.464  1.00 10.60    -0.281 OA
HETATM    9  C5  RAP A 108       1.376   6.730  12.455  1.00  4.19     0.024 C 
HETATM   10  O5  RAP A 108       1.177   8.647  16.525  1.00 10.76    -0.332 OA
HETATM   11  C6  RAP A 108       1.752   7.560  13.644  1.00  3.25     0.105 C 
HETATM   12  N7  RAP A 108       3.091   7.134  14.083  1.00  8.46    -0.307 N 
HETATM   13  C8  RAP A 108       3.375   6.798  15.351  1.00 10.06     0.297 C 
HETATM   14  O8  RAP A 108       3.184  17.719   8.312  1.00 18.31    -0.293 OA
HETATM   15  C9  RAP A 108       2.384   6.643  16.346  1.00 11.13     0.279 C 
HETATM   16  C10 RAP A 108       1.984   7.787  17.295  1.00 16.59     0.246 C 
HETATM   17  C11 RAP A 108       3.222   8.600  17.856  1.00 10.40     0.059 C 
HETATM   18  O11 RAP A 108       2.110  10.791  11.631  1.00  9.49    -0.296 OA
HETATM   19  C12 RAP A 108       2.768   9.911  18.539  1.00 12.17     0.008 C 
HETATM   20  C13 RAP A 108       1.809  10.676  17.638  1.00 12.80     0.030 C 
HETATM   21  C14 RAP A 108       0.682   9.815  17.077  1.00 10.37     0.121 C 
HETATM   22  C15 RAP A 108       0.011  10.538  15.923  1.00  5.94     0.064 C 
HETATM   23  C16 RAP A 108      -0.821  11.765  16.275  1.00  9.79     0.136 C 
HETATM   24  C17 RAP A 108      -1.402  12.411  15.036  1.00 15.52    -0.017 C 
HETATM   25  C18 RAP A 108      -0.979  13.621  14.697  1.00 14.38    -0.006 C 
HETATM   26  C19 RAP A 108      -1.426  14.364  13.510  1.00  9.73    -0.001 C 
HETATM   27  C20 RAP A 108      -0.966  15.591  13.306  1.00 10.26    -0.000 C 
HETATM   28  C21 RAP A 108      -1.303  16.340  12.082  1.00 11.40    -0.005 C 
HETATM   29  C22 RAP A 108      -0.697  17.470  11.769  1.00 17.77    -0.026 C 
HETATM   30  C23 RAP A 108      -0.921  18.224  10.477  1.00 15.64     0.022 C 
HETATM   31  C24 RAP A 108       0.440  18.376   9.820  1.00 14.68     0.012 C 
HETATM   32  C25 RAP A 108       1.261  17.115   9.623  1.00 11.87     0.061 C 
HETATM   33  C26 RAP A 108       2.732  17.453   9.423  1.00 11.65     0.180 C 
HETATM   34  C27 RAP A 108       3.614  17.433  10.667  1.00  8.13     0.203 C 
HETATM   35  C28 RAP A 108       4.138  16.009  11.038  1.00 10.80     0.163 C 
HETATM   36  C29 RAP A 108       3.117  15.159  11.818  1.00  9.60    -0.019 C 
HETATM   37  C30 RAP A 108       2.513  14.092  11.297  1.00  8.55    -0.025 C 
HETATM   38  C31 RAP A 108       1.514  13.119  11.942  1.00  8.43     0.079 C 
HETATM   39  C32 RAP A 108       2.229  11.818  12.307  1.00 10.69     0.157 C 
HETATM   40  C33 RAP A 108       3.141  11.885  13.526  1.00  6.51     0.095 C 
HETATM   41  C34 RAP A 108       4.448  11.151  13.309  1.00  9.62     0.132 C 
HETATM   42  C43 RAP A 108       4.176   7.797  18.790  1.00 11.25     0.005 C 
HETATM   43  C44 RAP A 108      -2.473  11.591  14.294  1.00 14.40     0.029 C 
HETATM   44  C45 RAP A 108      -1.548  19.586  10.740  1.00  9.23     0.005 C 
HETATM   45  C46 RAP A 108       0.732  16.272   8.460  1.00 15.99     0.008 C 
HETATM   46  C47 RAP A 108       2.844  15.650  13.227  1.00 14.60     0.029 C 
HETATM   47  C48 RAP A 108       0.387  12.828  10.939  1.00  9.37     0.013 C 
ENDROOT
BRANCH  41  48
HETATM   48  C35 RAP A 108       5.643  11.489  14.223  1.00  9.58     0.028 C 
HETATM   49  C49 RAP A 108       6.866  10.688  13.880  1.00  8.29     0.003 C 
BRANCH  48  50
HETATM   50  C36 RAP A 108       5.297  11.330  15.703  1.00 10.31     0.003 C 
BRANCH  50  51
HETATM   51  C37 RAP A 108       5.247  12.603  16.552  1.00 22.90     0.003 C 
HETATM   52  C38 RAP A 108       6.103  13.699  15.907  1.00 14.17     0.032 C 
HETATM   53  C39 RAP A 108       6.195  14.965  16.762  1.00 34.20     0.142 C 
HETATM   54  C40 RAP A 108       4.756  15.465  17.135  1.00 38.24     0.138 C 
HETATM   55  C41 RAP A 108       3.871  14.363  17.752  1.00 16.32     0.032 C 
HETATM   56  C42 RAP A 108       3.846  13.127  16.866  1.00 14.05     0.003 C 
BRANCH  53  57
HETATM   57  O12 RAP A 108       6.860  15.925  15.982  1.00 30.82    -0.352 OA
HETATM   58  C52 RAP A 108       6.363  16.148  14.707  1.00 28.14     0.174 C 
ENDBRANCH  53  57
BRANCH  54  59
HETATM   59  O13 RAP A 108       4.863  16.548  18.056  1.00 28.84    -0.382 OA
HETATM   60  HO3 RAP A 108       4.230  16.427  18.776  1.00 13.32     0.210 HD
ENDBRANCH  54  59
ENDBRANCH  50  51
ENDBRANCH  48  50
ENDBRANCH  41  48
BRANCH  35  61
HETATM   61  O10 RAP A 108       4.489  15.347   9.815  1.00 12.16    -0.378 OA
HETATM   62  HO1 RAP A 108       4.185  14.427   9.809  1.00 13.32     0.211 HD
ENDBRANCH  35  61
BRANCH  16  63
HETATM   63  O6  RAP A 108       1.253   7.238  18.395  1.00 14.16    -0.358 OA
HETATM   64  HO6 RAP A 108       1.158   7.924  19.062  1.00 13.32     0.213 HD
ENDBRANCH  16  63
BRANCH  34  65
HETATM   65  O9  RAP A 108       4.744  18.229  10.429  1.00 23.09    -0.344 OA
HETATM   66  C51 RAP A 108       5.669  18.278  11.458  1.00 19.04     0.175 C 
ENDBRANCH  34  65
BRANCH  23  67
HETATM   67  O7  RAP A 108      -1.856  11.351  17.111  1.00 20.17    -0.350 OA
HETATM   68  C50 RAP A 108      -2.155  12.189  18.182  1.00 28.36     0.175 C 
ENDBRANCH  23  67
TORSDOF 9
ENDMDL
