MODEL 1
REMARK VINA RESULT:   -10.862      0.000      0.000
REMARK INTER + INTRA:         -17.927
REMARK INTER:                 -15.624
REMARK INTRA:                  -2.303
REMARK UNBOUND:                -2.303
REMARK  9 active torsions:
REMARK  status: ('A' for Active; 'I' for Inactive)
REMARK    1  A    between atoms: O6_12  and  C10_19 
REMARK    2  A    between atoms: O7_14  and  C16_29 
REMARK    3  A    between atoms: O9_18  and  C27_40 
REMARK    4  A    between atoms: O10_20  and  C28_41 
REMARK    5  A    between atoms: O12_24  and  C39_52 
REMARK    6  A    between atoms: O13_26  and  C40_53 
REMARK    7  A    between atoms: C34_47  and  C35_48 
REMARK    8  A    between atoms: C35_48  and  C36_49 
REMARK    9  A    between atoms: C36_49  and  C37_50 
ROOT
HETATM    1  C1  RAP A 108       4.840   8.405  12.919  1.00  5.98     0.292 C 
HETATM    2  O1  RAP A 108       4.492   9.477  13.785  1.00  9.08    -0.302 OA
HETATM    3  C2  RAP A 108       4.366   6.973  13.169  1.00  6.42     0.171 C 
HETATM    4  O2  RAP A 108       5.571   8.648  11.962  1.00 14.08    -0.262 OA
HETATM    5  C3  RAP A 108       3.890   6.321  11.879  1.00  5.50     0.033 C 
HETATM    6  O3  RAP A 108       4.745   6.061  15.659  1.00 10.38    -0.264 OA
HETATM    7  C4  RAP A 108       2.528   6.812  11.411  1.00  4.49     0.004 C 
HETATM    8  O4  RAP A 108       1.969   5.178  16.472  1.00 10.60    -0.281 OA
HETATM    9  C5  RAP A 108       1.539   6.614  12.546  1.00  4.19     0.024 C 
HETATM   10  O5  RAP A 108       1.511   8.297  16.723  1.00 10.76    -0.332 OA
HETATM   11  C6  RAP A 108       1.981   7.350  13.774  1.00  3.25     0.105 C 
HETATM   12  N7  RAP A 108       3.299   6.823  14.164  1.00  8.46    -0.307 N 
HETATM   13  C8  RAP A 108       3.581   6.398  15.405  1.00 10.06     0.297 C 
HETATM   14  O8  RAP A 108       3.921  17.705   9.012  1.00 18.31    -0.293 OA
HETATM   15  C9  RAP A 108       2.597   6.242  16.406  1.00 11.13     0.279 C 
HETATM   16  C10 RAP A 108       2.279   7.349  17.427  1.00 16.59     0.246 C 
HETATM   17  C11 RAP A 108       3.569   8.056  18.012  1.00 10.40     0.059 C 
HETATM   18  O11 RAP A 108       2.496  10.668  11.945  1.00  9.49    -0.296 OA
HETATM   19  C12 RAP A 108       3.203   9.348  18.777  1.00 12.17     0.008 C 
HETATM   20  C13 RAP A 108       2.277  10.219  17.939  1.00 12.80     0.030 C 
HETATM   21  C14 RAP A 108       1.094   9.457  17.350  1.00 10.37     0.121 C 
HETATM   22  C15 RAP A 108       0.449  10.284  16.252  1.00  5.94     0.064 C 
HETATM   23  C16 RAP A 108      -0.306  11.533  16.689  1.00  9.79     0.136 C 
HETATM   24  C17 RAP A 108      -0.867  12.283  15.500  1.00 15.52    -0.017 C 
HETATM   25  C18 RAP A 108      -0.379  13.485  15.223  1.00 14.38    -0.006 C 
HETATM   26  C19 RAP A 108      -0.799  14.320  14.089  1.00  9.73    -0.001 C 
HETATM   27  C20 RAP A 108      -0.272  15.529  13.948  1.00 10.26    -0.000 C 
HETATM   28  C21 RAP A 108      -0.583  16.366  12.776  1.00 11.40    -0.005 C 
HETATM   29  C22 RAP A 108       0.083  17.476  12.518  1.00 17.77    -0.026 C 
HETATM   30  C23 RAP A 108      -0.116  18.317  11.275  1.00 15.64     0.022 C 
HETATM   31  C24 RAP A 108       1.241  18.429  10.604  1.00 14.68     0.012 C 
HETATM   32  C25 RAP A 108       1.985  17.137  10.320  1.00 11.87     0.061 C 
HETATM   33  C26 RAP A 108       3.471  17.402  10.114  1.00 11.65     0.180 C 
HETATM   34  C27 RAP A 108       4.368  17.259  11.339  1.00  8.13     0.203 C 
HETATM   35  C28 RAP A 108       4.814  15.787  11.616  1.00 10.80     0.163 C 
HETATM   36  C29 RAP A 108       3.757  14.953  12.365  1.00  9.60    -0.019 C 
HETATM   37  C30 RAP A 108       3.084  13.954  11.795  1.00  8.55    -0.025 C 
HETATM   38  C31 RAP A 108       2.040  13.004  12.400  1.00  8.43     0.079 C 
HETATM   39  C32 RAP A 108       2.684  11.645  12.676  1.00 10.69     0.157 C 
HETATM   40  C33 RAP A 108       3.616  11.588  13.881  1.00  6.51     0.095 C 
HETATM   41  C34 RAP A 108       4.875  10.795  13.598  1.00  9.62     0.132 C 
HETATM   42  C43 RAP A 108       4.489   7.146  18.881  1.00 11.25     0.005 C 
HETATM   43  C44 RAP A 108      -1.994  11.571  14.731  1.00 14.40     0.029 C 
HETATM   44  C45 RAP A 108      -0.659  19.694  11.628  1.00  9.23     0.005 C 
HETATM   45  C46 RAP A 108       1.391  16.395   9.120  1.00 15.99     0.008 C 
HETATM   46  C47 RAP A 108       3.533  15.376  13.804  1.00 14.60     0.029 C 
HETATM   47  C48 RAP A 108       0.884  12.837  11.402  1.00  9.37     0.013 C 
ENDROOT
BRANCH  41  48
HETATM   48  C35 RAP A 108       6.100  11.010  14.508  1.00  9.58     0.028 C 
HETATM   49  C49 RAP A 108       5.719  11.133  15.956  1.00  8.29     0.003 C 
BRANCH  48  50
HETATM   50  C36 RAP A 108       6.937  12.211  14.073  1.00 10.31     0.003 C 
BRANCH  50  51
HETATM   51  C37 RAP A 108       7.543  12.172  12.667  1.00 22.90     0.003 C 
HETATM   52  C38 RAP A 108       7.812  13.597  12.171  1.00 14.17     0.032 C 
HETATM   53  C39 RAP A 108       8.310  13.642  10.725  1.00 34.20     0.142 C 
HETATM   54  C40 RAP A 108       9.553  12.701  10.557  1.00 38.24     0.138 C 
HETATM   55  C41 RAP A 108       9.309  11.273  11.085  1.00 16.32     0.032 C 
HETATM   56  C42 RAP A 108       8.792  11.303  12.516  1.00 14.05     0.003 C 
BRANCH  53  57
HETATM   57  O12 RAP A 108       8.667  14.975  10.467  1.00 30.82    -0.352 OA
HETATM   58  C52 RAP A 108       9.498  15.589  11.391  1.00 28.14     0.174 C 
ENDBRANCH  53  57
BRANCH  54  59
HETATM   59  O13 RAP A 108       9.905  12.634   9.176  1.00 28.84    -0.382 OA
HETATM   60  HO3 RAP A 108       9.971  13.527   8.814  1.00 13.32     0.210 HD
ENDBRANCH  54  59
ENDBRANCH  50  51
ENDBRANCH  48  50
ENDBRANCH  41  48
BRANCH  35  61
HETATM   61  O10 RAP A 108       5.108  15.179  10.352  1.00 12.16    -0.378 OA
HETATM   62  HO1 RAP A 108       4.367  14.643  10.035  1.00 13.32     0.211 HD
ENDBRANCH  35  61
BRANCH  16  63
HETATM   63  O6  RAP A 108       1.533   6.779  18.507  1.00 14.16    -0.358 OA
HETATM   64  HO6 RAP A 108       1.605   7.369  19.263  1.00 13.32     0.213 HD
ENDBRANCH  16  63
BRANCH  34  65
HETATM   65  O9  RAP A 108       5.539  18.002  11.126  1.00 23.09    -0.344 OA
HETATM   66  C51 RAP A 108       6.511  17.878  12.105  1.00 19.04     0.175 C 
ENDBRANCH  34  65
BRANCH  23  67
HETATM   67  O7  RAP A 108      -1.351  11.131  17.518  1.00 20.17    -0.350 OA
HETATM   68  C50 RAP A 108      -1.536  11.875  18.680  1.00 28.36     0.175 C 
ENDBRANCH  23  67
TORSDOF 9
ENDMDL
MODEL 2
REMARK VINA RESULT:    -9.249      1.544      2.214
REMARK INTER + INTRA:         -15.607
REMARK INTER:                 -14.745
REMARK INTRA:                  -0.862
REMARK UNBOUND:                -2.303
REMARK  9 active torsions:
REMARK  status: ('A' for Active; 'I' for Inactive)
REMARK    1  A    between atoms: O6_12  and  C10_19 
REMARK    2  A    between atoms: O7_14  and  C16_29 
REMARK    3  A    between atoms: O9_18  and  C27_40 
REMARK    4  A    between atoms: O10_20  and  C28_41 
REMARK    5  A    between atoms: O12_24  and  C39_52 
REMARK    6  A    between atoms: O13_26  and  C40_53 
REMARK    7  A    between atoms: C34_47  and  C35_48 
REMARK    8  A    between atoms: C35_48  and  C36_49 
REMARK    9  A    between atoms: C36_49  and  C37_50 
ROOT
HETATM    1  C1  RAP A 108       4.796   8.384  12.847  1.00  5.98     0.292 C 
HETATM    2  O1  RAP A 108       4.462   9.451  13.725  1.00  9.08    -0.302 OA
HETATM    3  C2  RAP A 108       4.323   6.952  13.092  1.00  6.42     0.171 C 
HETATM    4  O2  RAP A 108       5.513   8.634  11.880  1.00 14.08    -0.262 OA
HETATM    5  C3  RAP A 108       3.828   6.309  11.805  1.00  5.50     0.033 C 
HETATM    6  O3  RAP A 108       4.739   6.021  15.570  1.00 10.38    -0.264 OA
HETATM    7  C4  RAP A 108       2.459   6.806  11.362  1.00  4.49     0.004 C 
HETATM    8  O4  RAP A 108       1.974   5.135  16.418  1.00 10.60    -0.281 OA
HETATM    9  C5  RAP A 108       1.487   6.601  12.509  1.00  4.19     0.024 C 
HETATM   10  O5  RAP A 108       1.525   8.253  16.698  1.00 10.76    -0.332 OA
HETATM   11  C6  RAP A 108       1.948   7.327  13.735  1.00  3.25     0.105 C 
HETATM   12  N7  RAP A 108       3.271   6.795  14.102  1.00  8.46    -0.307 N 
HETATM   13  C8  RAP A 108       3.572   6.361  15.335  1.00 10.06     0.297 C 
HETATM   14  O8  RAP A 108       3.832  17.715   9.023  1.00 18.31    -0.293 OA
HETATM   15  C9  RAP A 108       2.603   6.199  16.350  1.00 11.13     0.279 C 
HETATM   16  C10 RAP A 108       2.301   7.299  17.384  1.00 16.59     0.246 C 
HETATM   17  C11 RAP A 108       3.601   7.999  17.955  1.00 10.40     0.059 C 
HETATM   18  O11 RAP A 108       2.441  10.658  11.924  1.00  9.49    -0.296 OA
HETATM   19  C12 RAP A 108       3.248   9.286  18.735  1.00 12.17     0.008 C 
HETATM   20  C13 RAP A 108       2.311  10.164  17.917  1.00 12.80     0.030 C 
HETATM   21  C14 RAP A 108       1.118   9.409  17.340  1.00 10.37     0.121 C 
HETATM   22  C15 RAP A 108       0.458  10.244  16.258  1.00  5.94     0.064 C 
HETATM   23  C16 RAP A 108      -0.288  11.492  16.716  1.00  9.79     0.136 C 
HETATM   24  C17 RAP A 108      -0.866  12.251  15.541  1.00 15.52    -0.017 C 
HETATM   25  C18 RAP A 108      -0.380  13.454  15.266  1.00 14.38    -0.006 C 
HETATM   26  C19 RAP A 108      -0.816  14.298  14.145  1.00  9.73    -0.001 C 
HETATM   27  C20 RAP A 108      -0.290  15.507  14.005  1.00 10.26    -0.000 C 
HETATM   28  C21 RAP A 108      -0.617  16.354  12.843  1.00 11.40    -0.005 C 
HETATM   29  C22 RAP A 108       0.047  17.465  12.584  1.00 17.77    -0.026 C 
HETATM   30  C23 RAP A 108      -0.170  18.315  11.351  1.00 15.64     0.022 C 
HETATM   31  C24 RAP A 108       1.178  18.431  10.660  1.00 14.68     0.012 C 
HETATM   32  C25 RAP A 108       1.915  17.140  10.355  1.00 11.87     0.061 C 
HETATM   33  C26 RAP A 108       3.398  17.404  10.129  1.00 11.65     0.180 C 
HETATM   34  C27 RAP A 108       4.314  17.251  11.339  1.00  8.13     0.203 C 
HETATM   35  C28 RAP A 108       4.762  15.776  11.599  1.00 10.80     0.163 C 
HETATM   36  C29 RAP A 108       3.714  14.938  12.357  1.00  9.60    -0.019 C 
HETATM   37  C30 RAP A 108       3.032  13.944  11.790  1.00  8.55    -0.025 C 
HETATM   38  C31 RAP A 108       1.996  12.991  12.403  1.00  8.43     0.079 C 
HETATM   39  C32 RAP A 108       2.641  11.629  12.660  1.00 10.69     0.157 C 
HETATM   40  C33 RAP A 108       3.591  11.562  13.850  1.00  6.51     0.095 C 
HETATM   41  C34 RAP A 108       4.845  10.769  13.542  1.00  9.62     0.132 C 
HETATM   42  C43 RAP A 108       4.532   7.082  18.803  1.00 11.25     0.005 C 
HETATM   43  C44 RAP A 108      -2.006  11.546  14.784  1.00 14.40     0.029 C 
HETATM   44  C45 RAP A 108      -0.705  19.690  11.722  1.00  9.23     0.005 C 
HETATM   45  C46 RAP A 108       1.303  16.408   9.159  1.00 15.99     0.008 C 
HETATM   46  C47 RAP A 108       3.513  15.350  13.803  1.00 14.60     0.029 C 
HETATM   47  C48 RAP A 108       0.824  12.833  11.421  1.00  9.37     0.013 C 
ENDROOT
BRANCH  41  48
HETATM   48  C35 RAP A 108       6.084  10.976  14.436  1.00  9.58     0.028 C 
HETATM   49  C49 RAP A 108       5.724  11.516  15.790  1.00  8.29     0.003 C 
BRANCH  48  50
HETATM   50  C36 RAP A 108       7.134  11.863  13.768  1.00 10.31     0.003 C 
BRANCH  50  51
HETATM   51  C37 RAP A 108       7.761  12.969  14.619  1.00 22.90     0.003 C 
HETATM   52  C38 RAP A 108       6.678  13.945  15.095  1.00 14.17     0.032 C 
HETATM   53  C39 RAP A 108       7.247  15.144  15.855  1.00 34.20     0.142 C 
HETATM   54  C40 RAP A 108       8.169  14.651  17.023  1.00 38.24     0.138 C 
HETATM   55  C41 RAP A 108       9.241  13.641  16.566  1.00 16.32     0.032 C 
HETATM   56  C42 RAP A 108       8.610  12.490  15.796  1.00 14.05     0.003 C 
BRANCH  53  57
HETATM   57  O12 RAP A 108       6.146  15.852  16.365  1.00 30.82    -0.352 OA
HETATM   58  C52 RAP A 108       5.254  15.138  17.149  1.00 28.14     0.174 C 
ENDBRANCH  53  57
BRANCH  54  59
HETATM   59  O13 RAP A 108       8.811  15.776  17.619  1.00 28.84    -0.382 OA
HETATM   60  HO3 RAP A 108       9.115  16.380  16.929  1.00 13.32     0.210 HD
ENDBRANCH  54  59
ENDBRANCH  50  51
ENDBRANCH  48  50
ENDBRANCH  41  48
BRANCH  35  61
HETATM   61  O10 RAP A 108       5.036  15.177  10.326  1.00 12.16    -0.378 OA
HETATM   62  HO1 RAP A 108       4.387  14.491  10.109  1.00 13.32     0.211 HD
ENDBRANCH  35  61
BRANCH  16  63
HETATM   63  O6  RAP A 108       1.570   6.721  18.470  1.00 14.16    -0.358 OA
HETATM   64  HO6 RAP A 108       1.506   7.379  19.169  1.00 13.32     0.213 HD
ENDBRANCH  16  63
BRANCH  34  65
HETATM   65  O9  RAP A 108       5.482  17.993  11.115  1.00 23.09    -0.344 OA
HETATM   66  C51 RAP A 108       5.578  19.184  11.816  1.00 19.04     0.175 C 
ENDBRANCH  34  65
BRANCH  23  67
HETATM   67  O7  RAP A 108      -1.321  11.084  17.558  1.00 20.17    -0.350 OA
HETATM   68  C50 RAP A 108      -1.491  11.823  18.725  1.00 28.36     0.175 C 
ENDBRANCH  23  67
TORSDOF 9
ENDMDL
