MODEL 1
REMARK VINA RESULT:    -6.199      0.000      0.000
REMARK INTER + INTRA:         -11.286
REMARK INTER:                  -8.917
REMARK INTRA:                  -2.369
REMARK UNBOUND:                -2.369
REMARK  9 active torsions:
REMARK  status: ('A' for Active; 'I' for Inactive)
REMARK    1  A    between atoms: O6_12  and  C10_19 
REMARK    2  A    between atoms: O7_14  and  C16_29 
REMARK    3  A    between atoms: O9_18  and  C27_40 
REMARK    4  A    between atoms: O10_20  and  C28_41 
REMARK    5  A    between atoms: O12_24  and  C39_52 
REMARK    6  A    between atoms: O13_26  and  C40_53 
REMARK    7  A    between atoms: C34_47  and  C35_48 
REMARK    8  A    between atoms: C35_48  and  C36_49 
REMARK    9  A    between atoms: C36_49  and  C37_50 
ROOT
HETATM    1  C1  RAP A 108      11.164  -3.929  29.348  1.00  5.98     0.292 C 
HETATM    2  O1  RAP A 108      11.299  -2.821  28.468  1.00  9.08    -0.302 OA
HETATM    3  C2  RAP A 108      12.360  -4.784  29.766  1.00  6.42     0.171 C 
HETATM    4  O2  RAP A 108      10.039  -4.214  29.752  1.00 14.08    -0.262 OA
HETATM    5  C3  RAP A 108      12.325  -5.086  31.257  1.00  5.50     0.033 C 
HETATM    6  O3  RAP A 108      13.921  -5.625  27.757  1.00 10.38    -0.264 OA
HETATM    7  C4  RAP A 108      12.720  -3.903  32.129  1.00  4.49     0.004 C 
HETATM    8  O4  RAP A 108      16.659  -4.645  28.589  1.00 10.60    -0.281 OA
HETATM    9  C5  RAP A 108      14.088  -3.421  31.679  1.00  4.19     0.024 C 
HETATM   10  O5  RAP A 108      15.466  -1.858  27.687  1.00 10.76    -0.332 OA
HETATM   11  C6  RAP A 108      14.069  -3.035  30.232  1.00  3.25     0.105 C 
HETATM   12  N7  RAP A 108      13.680  -4.224  29.456  1.00  8.46    -0.307 N 
HETATM   13  C8  RAP A 108      14.380  -4.675  28.404  1.00 10.06     0.297 C 
HETATM   14  O8  RAP A 108       4.818   3.898  30.380  1.00 18.31    -0.293 OA
HETATM   15  C9  RAP A 108      15.651  -4.168  28.052  1.00 11.13     0.279 C 
HETATM   16  C10 RAP A 108      15.831  -3.042  27.018  1.00 16.59     0.246 C 
HETATM   17  C11 RAP A 108      14.920  -3.215  25.734  1.00 10.40     0.059 C 
HETATM   18  O11 RAP A 108      11.013  -0.764  30.584  1.00  9.49    -0.296 OA
HETATM   19  C12 RAP A 108      14.898  -1.924  24.884  1.00 12.17     0.008 C 
HETATM   20  C13 RAP A 108      14.607  -0.714  25.761  1.00 12.80     0.030 C 
HETATM   21  C14 RAP A 108      15.474  -0.649  27.015  1.00 10.37     0.121 C 
HETATM   22  C15 RAP A 108      14.880   0.346  27.996  1.00  5.94     0.064 C 
HETATM   23  C16 RAP A 108      14.962   1.818  27.610  1.00  9.79     0.136 C 
HETATM   24  C17 RAP A 108      14.304   2.698  28.652  1.00 15.52    -0.017 C 
HETATM   25  C18 RAP A 108      13.204   3.359  28.316  1.00 14.38    -0.006 C 
HETATM   26  C19 RAP A 108      12.438   4.226  29.223  1.00  9.73    -0.001 C 
HETATM   27  C20 RAP A 108      11.382   4.876  28.754  1.00 10.26    -0.000 C 
HETATM   28  C21 RAP A 108      10.521   5.679  29.642  1.00 11.40    -0.005 C 
HETATM   29  C22 RAP A 108       9.361   6.161  29.237  1.00 17.77    -0.026 C 
HETATM   30  C23 RAP A 108       8.388   6.896  30.133  1.00 15.64     0.022 C 
HETATM   31  C24 RAP A 108       7.069   6.147  30.049  1.00 14.68     0.012 C 
HETATM   32  C25 RAP A 108       7.099   4.655  30.322  1.00 11.87     0.061 C 
HETATM   33  C26 RAP A 108       5.866   3.974  29.744  1.00 11.65     0.180 C 
HETATM   34  C27 RAP A 108       6.003   3.382  28.345  1.00  8.13     0.203 C 
HETATM   35  C28 RAP A 108       6.625   1.949  28.331  1.00 10.80     0.163 C 
HETATM   36  C29 RAP A 108       8.163   1.944  28.422  1.00  9.60    -0.019 C 
HETATM   37  C30 RAP A 108       8.825   1.515  29.496  1.00  8.55    -0.025 C 
HETATM   38  C31 RAP A 108      10.338   1.402  29.734  1.00  8.43     0.079 C 
HETATM   39  C32 RAP A 108      10.770  -0.058  29.600  1.00 10.69     0.157 C 
HETATM   40  C33 RAP A 108      10.828  -0.602  28.177  1.00  6.51     0.095 C 
HETATM   41  C34 RAP A 108      10.256  -2.001  28.072  1.00  9.62     0.132 C 
HETATM   42  C43 RAP A 108      15.252  -4.452  24.846  1.00 11.25     0.005 C 
HETATM   43  C44 RAP A 108      15.011   2.761  30.017  1.00 14.40     0.029 C 
HETATM   44  C45 RAP A 108       8.217   8.340  29.685  1.00  9.23     0.005 C 
HETATM   45  C46 RAP A 108       7.237   4.356  31.817  1.00 15.99     0.008 C 
HETATM   46  C47 RAP A 108       8.862   2.483  27.189  1.00 14.60     0.029 C 
HETATM   47  C48 RAP A 108      10.657   1.910  31.149  1.00  9.37     0.013 C 
ENDROOT
BRANCH  41  48
HETATM   48  C35 RAP A 108       9.820  -2.514  26.685  1.00  9.58     0.028 C 
HETATM   49  C49 RAP A 108       8.420  -3.058  26.694  1.00  8.29     0.003 C 
BRANCH  48  50
HETATM   50  C36 RAP A 108      10.792  -3.550  26.123  1.00 10.31     0.003 C 
BRANCH  50  51
HETATM   51  C37 RAP A 108      11.466  -3.228  24.787  1.00 22.90     0.003 C 
HETATM   52  C38 RAP A 108      11.750  -4.522  24.016  1.00 14.17     0.032 C 
HETATM   53  C39 RAP A 108      12.529  -4.287  22.721  1.00 34.20     0.142 C 
HETATM   54  C40 RAP A 108      11.799  -3.212  21.844  1.00 38.24     0.138 C 
HETATM   55  C41 RAP A 108      11.473  -1.918  22.615  1.00 16.32     0.032 C 
HETATM   56  C42 RAP A 108      10.723  -2.226  23.903  1.00 14.05     0.003 C 
BRANCH  53  57
HETATM   57  O12 RAP A 108      12.571  -5.521  22.051  1.00 30.82    -0.352 OA
HETATM   58  C52 RAP A 108      12.895  -6.633  22.811  1.00 28.14     0.174 C 
ENDBRANCH  53  57
BRANCH  54  59
HETATM   59  O13 RAP A 108      12.616  -2.893  20.720  1.00 28.84    -0.382 OA
HETATM   60  HO3 RAP A 108      13.217  -2.172  20.949  1.00 13.32     0.210 HD
ENDBRANCH  54  59
ENDBRANCH  50  51
ENDBRANCH  48  50
ENDBRANCH  41  48
BRANCH  35  61
HETATM   61  O10 RAP A 108       6.070   1.227  29.438  1.00 12.16    -0.378 OA
HETATM   62  HO1 RAP A 108       6.475   1.495  30.276  1.00 13.32     0.211 HD
ENDBRANCH  35  61
BRANCH  16  63
HETATM   63  O6  RAP A 108      17.202  -3.005  26.611  1.00 14.16    -0.358 OA
HETATM   64  HO6 RAP A 108      17.421  -3.857  26.222  1.00 13.32     0.213 HD
ENDBRANCH  16  63
BRANCH  34  65
HETATM   65  O9  RAP A 108       4.725   3.272  27.777  1.00 23.09    -0.344 OA
HETATM   66  C51 RAP A 108       4.694   3.051  26.410  1.00 19.04     0.175 C 
ENDBRANCH  34  65
BRANCH  23  67
HETATM   67  O7  RAP A 108      16.309   2.156  27.502  1.00 20.17    -0.350 OA
HETATM   68  C50 RAP A 108      16.703   2.745  26.304  1.00 28.36     0.175 C 
ENDBRANCH  23  67
TORSDOF 9
ENDMDL
MODEL 2
REMARK VINA RESULT:    -5.746      2.954      9.692
REMARK INTER + INTRA:         -10.634
REMARK INTER:                  -8.306
REMARK INTRA:                  -2.328
REMARK UNBOUND:                -2.369
REMARK  9 active torsions:
REMARK  status: ('A' for Active; 'I' for Inactive)
REMARK    1  A    between atoms: O6_12  and  C10_19 
REMARK    2  A    between atoms: O7_14  and  C16_29 
REMARK    3  A    between atoms: O9_18  and  C27_40 
REMARK    4  A    between atoms: O10_20  and  C28_41 
REMARK    5  A    between atoms: O12_24  and  C39_52 
REMARK    6  A    between atoms: O13_26  and  C40_53 
REMARK    7  A    between atoms: C34_47  and  C35_48 
REMARK    8  A    between atoms: C35_48  and  C36_49 
REMARK    9  A    between atoms: C36_49  and  C37_50 
ROOT
HETATM    1  C1  RAP A 108      13.913   0.529  27.385  1.00  5.98     0.292 C 
HETATM    2  O1  RAP A 108      12.729  -0.150  26.988  1.00  9.08    -0.302 OA
HETATM    3  C2  RAP A 108      13.908   1.598  28.477  1.00  6.42     0.171 C 
HETATM    4  O2  RAP A 108      14.959   0.257  26.801  1.00 14.08    -0.262 OA
HETATM    5  C3  RAP A 108      15.086   1.421  29.424  1.00  5.50     0.033 C 
HETATM    6  O3  RAP A 108      12.027   3.488  28.217  1.00 10.38    -0.264 OA
HETATM    7  C4  RAP A 108      14.919   0.263  30.397  1.00  4.49     0.004 C 
HETATM    8  O4  RAP A 108      10.592   3.368  30.877  1.00 10.60    -0.281 OA
HETATM    9  C5  RAP A 108      13.614   0.460  31.146  1.00  4.19     0.024 C 
HETATM   10  O5  RAP A 108       9.384   0.727  29.624  1.00 10.76    -0.332 OA
HETATM   11  C6  RAP A 108      12.458   0.530  30.196  1.00  3.25     0.105 C 
HETATM   12  N7  RAP A 108      12.689   1.667  29.291  1.00  8.46    -0.307 N 
HETATM   13  C8  RAP A 108      11.776   2.624  29.067  1.00 10.06     0.297 C 
HETATM   14  O8  RAP A 108      14.667  -9.001  24.035  1.00 18.31    -0.293 OA
HETATM   15  C9  RAP A 108      10.581   2.736  29.813  1.00 11.13     0.279 C 
HETATM   16  C10 RAP A 108       9.258   2.102  29.347  1.00 16.59     0.246 C 
HETATM   17  C11 RAP A 108       8.976   2.298  27.801  1.00 10.40     0.059 C 
HETATM   18  O11 RAP A 108      13.404  -2.689  28.362  1.00  9.49    -0.296 OA
HETATM   19  C12 RAP A 108       7.819   1.392  27.323  1.00 12.17     0.008 C 
HETATM   20  C13 RAP A 108       8.033  -0.040  27.795  1.00 12.80     0.030 C 
HETATM   21  C14 RAP A 108       8.369  -0.147  29.279  1.00 10.37     0.121 C 
HETATM   22  C15 RAP A 108       8.925  -1.528  29.579  1.00  5.94     0.064 C 
HETATM   23  C16 RAP A 108       7.945  -2.692  29.503  1.00  9.79     0.136 C 
HETATM   24  C17 RAP A 108       8.632  -4.010  29.787  1.00 15.52    -0.017 C 
HETATM   25  C18 RAP A 108       8.727  -4.897  28.805  1.00 14.38    -0.006 C 
HETATM   26  C19 RAP A 108       9.388  -6.205  28.918  1.00  9.73    -0.001 C 
HETATM   27  C20 RAP A 108       9.372  -7.027  27.878  1.00 10.26    -0.000 C 
HETATM   28  C21 RAP A 108      10.105  -8.306  27.902  1.00 11.40    -0.005 C 
HETATM   29  C22 RAP A 108      10.268  -9.035  26.814  1.00 17.77    -0.026 C 
HETATM   30  C23 RAP A 108      11.100 -10.297  26.755  1.00 15.64     0.022 C 
HETATM   31  C24 RAP A 108      12.134 -10.086  25.663  1.00 14.68     0.012 C 
HETATM   32  C25 RAP A 108      12.984  -8.831  25.744  1.00 11.87     0.061 C 
HETATM   33  C26 RAP A 108      13.600  -8.506  24.390  1.00 11.65     0.180 C 
HETATM   34  C27 RAP A 108      12.834  -7.527  23.506  1.00  8.13     0.203 C 
HETATM   35  C28 RAP A 108      13.123  -6.028  23.838  1.00 10.80     0.163 C 
HETATM   36  C29 RAP A 108      12.312  -5.494  25.035  1.00  9.60    -0.019 C 
HETATM   37  C30 RAP A 108      12.866  -5.186  26.207  1.00  8.55    -0.025 C 
HETATM   38  C31 RAP A 108      12.220  -4.608  27.475  1.00  8.43     0.079 C 
HETATM   39  C32 RAP A 108      12.547  -3.119  27.583  1.00 10.69     0.157 C 
HETATM   40  C33 RAP A 108      11.788  -2.204  26.629  1.00  6.51     0.095 C 
HETATM   41  C34 RAP A 108      12.678  -1.140  26.020  1.00  9.62     0.132 C 
HETATM   42  C43 RAP A 108       8.742   3.771  27.350  1.00 11.25     0.005 C 
HETATM   43  C44 RAP A 108       9.135  -4.206  31.228  1.00 14.40     0.029 C 
HETATM   44  C45 RAP A 108      10.234 -11.510  26.449  1.00  9.23     0.005 C 
HETATM   45  C46 RAP A 108      14.065  -8.949  26.822  1.00 15.99     0.008 C 
HETATM   46  C47 RAP A 108      10.824  -5.363  24.771  1.00 14.60     0.029 C 
HETATM   47  C48 RAP A 108      12.776  -5.352  28.699  1.00  9.37     0.013 C 
ENDROOT
BRANCH  41  48
HETATM   48  C35 RAP A 108      12.210  -0.441  24.728  1.00  9.58     0.028 C 
HETATM   49  C49 RAP A 108      10.973  -1.072  24.156  1.00  8.29     0.003 C 
BRANCH  48  50
HETATM   50  C36 RAP A 108      13.315  -0.380  23.674  1.00 10.31     0.003 C 
BRANCH  50  51
HETATM   51  C37 RAP A 108      14.064  -1.679  23.367  1.00 22.90     0.003 C 
HETATM   52  C38 RAP A 108      13.713  -2.167  21.956  1.00 14.17     0.032 C 
HETATM   53  C39 RAP A 108      14.334  -3.524  21.622  1.00 34.20     0.142 C 
HETATM   54  C40 RAP A 108      15.880  -3.484  21.878  1.00 38.24     0.138 C 
HETATM   55  C41 RAP A 108      16.250  -2.961  23.280  1.00 16.32     0.032 C 
HETATM   56  C42 RAP A 108      15.579  -1.623  23.557  1.00 14.05     0.003 C 
BRANCH  53  57
HETATM   57  O12 RAP A 108      14.068  -3.761  20.263  1.00 30.82    -0.352 OA
HETATM   58  C52 RAP A 108      13.492  -4.980  19.943  1.00 28.14     0.174 C 
ENDBRANCH  53  57
BRANCH  54  59
HETATM   59  O13 RAP A 108      16.416  -4.795  21.712  1.00 28.84    -0.382 OA
HETATM   60  HO3 RAP A 108      16.734  -5.126  22.561  1.00 13.32     0.210 HD
ENDBRANCH  54  59
ENDBRANCH  50  51
ENDBRANCH  48  50
ENDBRANCH  41  48
BRANCH  35  61
HETATM   61  O10 RAP A 108      14.526  -5.909  24.109  1.00 12.16    -0.378 OA
HETATM   62  HO1 RAP A 108      14.783  -4.986  24.248  1.00 13.32     0.211 HD
ENDBRANCH  35  61
BRANCH  16  63
HETATM   63  O6  RAP A 108       8.182   2.683  30.091  1.00 14.16    -0.358 OA
HETATM   64  HO6 RAP A 108       7.816   3.404  29.572  1.00 13.32     0.213 HD
ENDBRANCH  16  63
BRANCH  34  65
HETATM   65  O9  RAP A 108      13.222  -7.727  22.173  1.00 23.09    -0.344 OA
HETATM   66  C51 RAP A 108      12.237  -8.210  21.329  1.00 19.04     0.175 C 
ENDBRANCH  34  65
BRANCH  23  67
HETATM   67  O7  RAP A 108       6.950  -2.473  30.455  1.00 20.17    -0.350 OA
HETATM   68  C50 RAP A 108       5.637  -2.628  30.020  1.00 28.36     0.175 C 
ENDBRANCH  23  67
TORSDOF 9
ENDMDL
MODEL 3
REMARK VINA RESULT:    -5.745      3.870      8.189
REMARK INTER + INTRA:         -10.633
REMARK INTER:                  -7.975
REMARK INTRA:                  -2.658
REMARK UNBOUND:                -2.369
REMARK  9 active torsions:
REMARK  status: ('A' for Active; 'I' for Inactive)
REMARK    1  A    between atoms: O6_12  and  C10_19 
REMARK    2  A    between atoms: O7_14  and  C16_29 
REMARK    3  A    between atoms: O9_18  and  C27_40 
REMARK    4  A    between atoms: O10_20  and  C28_41 
REMARK    5  A    between atoms: O12_24  and  C39_52 
REMARK    6  A    between atoms: O13_26  and  C40_53 
REMARK    7  A    between atoms: C34_47  and  C35_48 
REMARK    8  A    between atoms: C35_48  and  C36_49 
REMARK    9  A    between atoms: C36_49  and  C37_50 
ROOT
HETATM    1  C1  RAP A 108      12.746  -3.587  22.185  1.00  5.98     0.292 C 
HETATM    2  O1  RAP A 108      12.990  -3.342  23.564  1.00  9.08    -0.302 OA
HETATM    3  C2  RAP A 108      13.826  -4.139  21.255  1.00  6.42     0.171 C 
HETATM    4  O2  RAP A 108      11.636  -3.311  21.737  1.00 14.08    -0.262 OA
HETATM    5  C3  RAP A 108      13.266  -5.226  20.349  1.00  5.50     0.033 C 
HETATM    6  O3  RAP A 108      16.188  -2.880  21.371  1.00 10.38    -0.264 OA
HETATM    7  C4  RAP A 108      13.037  -6.553  21.058  1.00  4.49     0.004 C 
HETATM    8  O4  RAP A 108      18.114  -5.137  21.955  1.00 10.60    -0.281 OA
HETATM    9  C5  RAP A 108      14.343  -6.973  21.709  1.00  4.19     0.024 C 
HETATM   10  O5  RAP A 108      16.839  -4.913  24.840  1.00 10.76    -0.332 OA
HETATM   11  C6  RAP A 108      14.819  -5.929  22.671  1.00  3.25     0.105 C 
HETATM   12  N7  RAP A 108      15.018  -4.680  21.917  1.00  8.46    -0.307 N 
HETATM   13  C8  RAP A 108      16.152  -3.965  21.966  1.00 10.06     0.297 C 
HETATM   14  O8  RAP A 108       5.069  -4.533  28.726  1.00 18.31    -0.293 OA
HETATM   15  C9  RAP A 108      17.327  -4.430  22.597  1.00 11.13     0.279 C 
HETATM   16  C10 RAP A 108      17.670  -4.087  24.058  1.00 16.59     0.246 C 
HETATM   17  C11 RAP A 108      17.395  -2.572  24.429  1.00 10.40     0.059 C 
HETATM   18  O11 RAP A 108      11.483  -5.707  24.525  1.00  9.49    -0.296 OA
HETATM   19  C12 RAP A 108      17.450  -2.351  25.958  1.00 12.17     0.008 C 
HETATM   20  C13 RAP A 108      16.599  -3.388  26.677  1.00 12.80     0.030 C 
HETATM   21  C14 RAP A 108      16.867  -4.818  26.220  1.00 10.37     0.121 C 
HETATM   22  C15 RAP A 108      15.747  -5.726  26.695  1.00  5.94     0.064 C 
HETATM   23  C16 RAP A 108      15.674  -5.997  28.193  1.00  9.79     0.136 C 
HETATM   24  C17 RAP A 108      14.496  -6.882  28.537  1.00 15.52    -0.017 C 
HETATM   25  C18 RAP A 108      13.509  -6.368  29.259  1.00 14.38    -0.006 C 
HETATM   26  C19 RAP A 108      12.289  -7.091  29.646  1.00  9.73    -0.001 C 
HETATM   27  C20 RAP A 108      11.397  -6.483  30.415  1.00 10.26    -0.000 C 
HETATM   28  C21 RAP A 108      10.112  -7.124  30.751  1.00 11.40    -0.005 C 
HETATM   29  C22 RAP A 108       9.135  -6.460  31.339  1.00 17.77    -0.026 C 
HETATM   30  C23 RAP A 108       7.761  -7.032  31.608  1.00 15.64     0.022 C 
HETATM   31  C24 RAP A 108       6.763  -6.100  30.943  1.00 14.68     0.012 C 
HETATM   32  C25 RAP A 108       6.984  -5.779  29.476  1.00 11.87     0.061 C 
HETATM   33  C26 RAP A 108       6.244  -4.507  29.083  1.00 11.65     0.180 C 
HETATM   34  C27 RAP A 108       7.039  -3.207  29.142  1.00  8.13     0.203 C 
HETATM   35  C28 RAP A 108       7.892  -2.938  27.861  1.00 10.80     0.163 C 
HETATM   36  C29 RAP A 108       9.235  -3.692  27.844  1.00  9.60    -0.019 C 
HETATM   37  C30 RAP A 108       9.491  -4.701  27.013  1.00  8.55    -0.025 C 
HETATM   38  C31 RAP A 108      10.776  -5.524  26.836  1.00  8.43     0.079 C 
HETATM   39  C32 RAP A 108      11.511  -5.061  25.578  1.00 10.69     0.157 C 
HETATM   40  C33 RAP A 108      12.235  -3.724  25.689  1.00  6.51     0.095 C 
HETATM   41  C34 RAP A 108      12.046  -2.863  24.457  1.00  9.62     0.132 C 
HETATM   42  C43 RAP A 108      18.293  -1.535  23.691  1.00 11.25     0.005 C 
HETATM   43  C44 RAP A 108      14.578  -8.332  28.028  1.00 14.40     0.029 C 
HETATM   44  C45 RAP A 108       7.493  -7.130  33.103  1.00  9.23     0.005 C 
HETATM   45  C46 RAP A 108       6.577  -6.948  28.574  1.00 15.99     0.008 C 
HETATM   46  C47 RAP A 108      10.240  -3.197  28.868  1.00 14.60     0.029 C 
HETATM   47  C48 RAP A 108      10.400  -7.007  26.701  1.00  9.37     0.013 C 
ENDROOT
BRANCH  41  48
HETATM   48  C35 RAP A 108      12.307  -1.348  24.572  1.00  9.58     0.028 C 
HETATM   49  C49 RAP A 108      11.455  -0.551  23.626  1.00  8.29     0.003 C 
BRANCH  48  50
HETATM   50  C36 RAP A 108      13.783  -1.002  24.383  1.00 10.31     0.003 C 
BRANCH  50  51
HETATM   51  C37 RAP A 108      14.544  -0.482  25.605  1.00 22.90     0.003 C 
HETATM   52  C38 RAP A 108      15.376   0.748  25.221  1.00 14.17     0.032 C 
HETATM   53  C39 RAP A 108      16.256   1.253  26.366  1.00 34.20     0.142 C 
HETATM   54  C40 RAP A 108      15.385   1.491  27.647  1.00 38.24     0.138 C 
HETATM   55  C41 RAP A 108      14.515   0.275  28.025  1.00 16.32     0.032 C 
HETATM   56  C42 RAP A 108      13.687  -0.191  26.836  1.00 14.05     0.003 C 
BRANCH  53  57
HETATM   57  O12 RAP A 108      16.824   2.462  25.929  1.00 30.82    -0.352 OA
HETATM   58  C52 RAP A 108      18.149   2.418  25.525  1.00 28.14     0.174 C 
ENDBRANCH  53  57
BRANCH  54  59
HETATM   59  O13 RAP A 108      16.242   1.810  28.742  1.00 28.84    -0.382 OA
HETATM   60  HO3 RAP A 108      15.773   2.376  29.368  1.00 13.32     0.210 HD
ENDBRANCH  54  59
ENDBRANCH  50  51
ENDBRANCH  48  50
ENDBRANCH  41  48
BRANCH  35  61
HETATM   61  O10 RAP A 108       7.103  -3.325  26.728  1.00 12.16    -0.378 OA
HETATM   62  HO1 RAP A 108       7.594  -3.916  26.138  1.00 13.32     0.211 HD
ENDBRANCH  35  61
BRANCH  16  63
HETATM   63  O6  RAP A 108      19.052  -4.377  24.287  1.00 14.16    -0.358 OA
HETATM   64  HO6 RAP A 108      19.103  -5.155  24.850  1.00 13.32     0.213 HD
ENDBRANCH  16  63
BRANCH  34  65
HETATM   65  O9  RAP A 108       6.140  -2.137  29.261  1.00 23.09    -0.344 OA
HETATM   66  C51 RAP A 108       6.716  -0.885  29.395  1.00 19.04     0.175 C 
ENDBRANCH  34  65
BRANCH  23  67
HETATM   67  O7  RAP A 108      16.857  -6.632  28.568  1.00 20.17    -0.350 OA
HETATM   68  C50 RAP A 108      17.461  -6.170  29.733  1.00 28.36     0.175 C 
ENDBRANCH  23  67
TORSDOF 9
ENDMDL
MODEL 4
REMARK VINA RESULT:    -5.732      4.905     11.163
REMARK INTER + INTRA:         -10.614
REMARK INTER:                  -8.200
REMARK INTRA:                  -2.414
REMARK UNBOUND:                -2.369
REMARK  9 active torsions:
REMARK  status: ('A' for Active; 'I' for Inactive)
REMARK    1  A    between atoms: O6_12  and  C10_19 
REMARK    2  A    between atoms: O7_14  and  C16_29 
REMARK    3  A    between atoms: O9_18  and  C27_40 
REMARK    4  A    between atoms: O10_20  and  C28_41 
REMARK    5  A    between atoms: O12_24  and  C39_52 
REMARK    6  A    between atoms: O13_26  and  C40_53 
REMARK    7  A    between atoms: C34_47  and  C35_48 
REMARK    8  A    between atoms: C35_48  and  C36_49 
REMARK    9  A    between atoms: C36_49  and  C37_50 
ROOT
HETATM    1  C1  RAP A 108       9.640  -3.039  30.060  1.00  5.98     0.292 C 
HETATM    2  O1  RAP A 108       9.228  -3.818  28.945  1.00  9.08    -0.302 OA
HETATM    3  C2  RAP A 108       8.869  -3.041  31.380  1.00  6.42     0.171 C 
HETATM    4  O2  RAP A 108      10.632  -2.325  29.933  1.00 14.08    -0.262 OA
HETATM    5  C3  RAP A 108       9.815  -3.124  32.569  1.00  5.50     0.033 C 
HETATM    6  O3  RAP A 108       6.225  -2.669  31.159  1.00 10.38    -0.264 OA
HETATM    7  C4  RAP A 108      10.408  -4.509  32.782  1.00  4.49     0.004 C 
HETATM    8  O4  RAP A 108       5.094  -5.073  32.605  1.00 10.60    -0.281 OA
HETATM    9  C5  RAP A 108       9.264  -5.500  32.897  1.00  4.19     0.024 C 
HETATM   10  O5  RAP A 108       6.011  -6.558  29.968  1.00 10.76    -0.332 OA
HETATM   11  C6  RAP A 108       8.406  -5.469  31.670  1.00  3.25     0.105 C 
HETATM   12  N7  RAP A 108       7.870  -4.105  31.530  1.00  8.46    -0.307 N 
HETATM   13  C8  RAP A 108       6.566  -3.842  31.362  1.00 10.06     0.297 C 
HETATM   14  O8  RAP A 108      16.705  -6.518  23.689  1.00 18.31    -0.293 OA
HETATM   15  C9  RAP A 108       5.561  -4.827  31.485  1.00 11.13     0.279 C 
HETATM   16  C10 RAP A 108       5.018  -5.607  30.274  1.00 16.59     0.246 C 
HETATM   17  C11 RAP A 108       4.760  -4.697  29.005  1.00 10.40     0.059 C 
HETATM   18  O11 RAP A 108      11.344  -5.871  29.257  1.00  9.49    -0.296 OA
HETATM   19  C12 RAP A 108       4.523  -5.554  27.740  1.00 12.17     0.008 C 
HETATM   20  C13 RAP A 108       5.609  -6.613  27.603  1.00 12.80     0.030 C 
HETATM   21  C14 RAP A 108       5.852  -7.404  28.885  1.00 10.37     0.121 C 
HETATM   22  C15 RAP A 108       7.168  -8.155  28.780  1.00  5.94     0.064 C 
HETATM   23  C16 RAP A 108       7.213  -9.323  27.803  1.00  9.79     0.136 C 
HETATM   24  C17 RAP A 108       8.586  -9.960  27.768  1.00 15.52    -0.017 C 
HETATM   25  C18 RAP A 108       9.297  -9.867  26.653  1.00 14.38    -0.006 C 
HETATM   26  C19 RAP A 108      10.653 -10.407  26.476  1.00  9.73    -0.001 C 
HETATM   27  C20 RAP A 108      11.241 -10.295  25.293  1.00 10.26    -0.000 C 
HETATM   28  C21 RAP A 108      12.635 -10.729  25.089  1.00 11.40    -0.005 C 
HETATM   29  C22 RAP A 108      13.299 -10.440  23.984  1.00 17.77    -0.026 C 
HETATM   30  C23 RAP A 108      14.761 -10.762  23.764  1.00 15.64     0.022 C 
HETATM   31  C24 RAP A 108      15.449  -9.450  23.431  1.00 14.68     0.012 C 
HETATM   32  C25 RAP A 108      15.246  -8.295  24.394  1.00 11.87     0.061 C 
HETATM   33  C26 RAP A 108      15.561  -6.966  23.719  1.00 11.65     0.180 C 
HETATM   34  C27 RAP A 108      14.387  -6.218  23.098  1.00  8.13     0.203 C 
HETATM   35  C28 RAP A 108      13.590  -5.347  24.122  1.00 10.80     0.163 C 
HETATM   36  C29 RAP A 108      12.567  -6.148  24.950  1.00  9.60    -0.019 C 
HETATM   37  C30 RAP A 108      12.714  -6.385  26.253  1.00  8.55    -0.025 C 
HETATM   38  C31 RAP A 108      11.781  -7.119  27.227  1.00  8.43     0.079 C 
HETATM   39  C32 RAP A 108      11.031  -6.100  28.085  1.00 10.69     0.157 C 
HETATM   40  C33 RAP A 108       9.908  -5.345  27.383  1.00  6.51     0.095 C 
HETATM   41  C34 RAP A 108       9.898  -3.871  27.734  1.00  9.62     0.132 C 
HETATM   42  C43 RAP A 108       3.632  -3.635  29.167  1.00 11.25     0.005 C 
HETATM   43  C44 RAP A 108       9.015 -10.695  29.051  1.00 14.40     0.029 C 
HETATM   44  C45 RAP A 108      14.935 -11.764  22.632  1.00  9.23     0.005 C 
HETATM   45  C46 RAP A 108      16.074  -8.470  25.669  1.00 15.99     0.008 C 
HETATM   46  C47 RAP A 108      11.384  -6.662  24.151  1.00 14.60     0.029 C 
HETATM   47  C48 RAP A 108      12.626  -8.034  28.128  1.00  9.37     0.013 C 
ENDROOT
BRANCH  41  48
HETATM   48  C35 RAP A 108       9.154  -2.898  26.798  1.00  9.58     0.028 C 
HETATM   49  C49 RAP A 108       7.665  -2.954  26.987  1.00  8.29     0.003 C 
BRANCH  48  50
HETATM   50  C36 RAP A 108       9.515  -3.121  25.331  1.00 10.31     0.003 C 
BRANCH  50  51
HETATM   51  C37 RAP A 108      10.902  -2.664  24.872  1.00 22.90     0.003 C 
HETATM   52  C38 RAP A 108      11.017  -2.781  23.348  1.00 14.17     0.032 C 
HETATM   53  C39 RAP A 108      12.417  -2.452  22.827  1.00 34.20     0.142 C 
HETATM   54  C40 RAP A 108      12.870  -1.049  23.359  1.00 38.24     0.138 C 
HETATM   55  C41 RAP A 108      12.727  -0.903  24.888  1.00 16.32     0.032 C 
HETATM   56  C42 RAP A 108      11.321  -1.270  25.339  1.00 14.05     0.003 C 
BRANCH  53  57
HETATM   57  O12 RAP A 108      12.329  -2.439  21.425  1.00 30.82    -0.352 OA
HETATM   58  C52 RAP A 108      12.087  -3.655  20.804  1.00 28.14     0.174 C 
ENDBRANCH  53  57
BRANCH  54  59
HETATM   59  O13 RAP A 108      14.232  -0.829  22.996  1.00 28.84    -0.382 OA
HETATM   60  HO3 RAP A 108      14.798  -1.460  23.457  1.00 13.32     0.210 HD
ENDBRANCH  54  59
ENDBRANCH  50  51
ENDBRANCH  48  50
ENDBRANCH  41  48
BRANCH  35  61
HETATM   61  O10 RAP A 108      14.543  -4.726  24.995  1.00 12.16    -0.378 OA
HETATM   62  HO1 RAP A 108      14.454  -3.762  24.990  1.00 13.32     0.211 HD
ENDBRANCH  35  61
BRANCH  16  63
HETATM   63  O6  RAP A 108       3.792  -6.242  30.647  1.00 14.16    -0.358 OA
HETATM   64  HO6 RAP A 108       3.481  -5.835  31.461  1.00 13.32     0.213 HD
ENDBRANCH  16  63
BRANCH  34  65
HETATM   65  O9  RAP A 108      14.880  -5.341  22.120  1.00 23.09    -0.344 OA
HETATM   66  C51 RAP A 108      15.020  -5.878  20.852  1.00 19.04     0.175 C 
ENDBRANCH  34  65
BRANCH  23  67
HETATM   67  O7  RAP A 108       6.275 -10.265  28.223  1.00 20.17    -0.350 OA
HETATM   68  C50 RAP A 108       5.465 -10.811  27.232  1.00 28.36     0.175 C 
ENDBRANCH  23  67
TORSDOF 9
ENDMDL
MODEL 5
REMARK VINA RESULT:    -5.689      3.109      7.133
REMARK INTER + INTRA:         -10.553
REMARK INTER:                  -8.035
REMARK INTRA:                  -2.518
REMARK UNBOUND:                -2.369
REMARK  9 active torsions:
REMARK  status: ('A' for Active; 'I' for Inactive)
REMARK    1  A    between atoms: O6_12  and  C10_19 
REMARK    2  A    between atoms: O7_14  and  C16_29 
REMARK    3  A    between atoms: O9_18  and  C27_40 
REMARK    4  A    between atoms: O10_20  and  C28_41 
REMARK    5  A    between atoms: O12_24  and  C39_52 
REMARK    6  A    between atoms: O13_26  and  C40_53 
REMARK    7  A    between atoms: C34_47  and  C35_48 
REMARK    8  A    between atoms: C35_48  and  C36_49 
REMARK    9  A    between atoms: C36_49  and  C37_50 
ROOT
HETATM    1  C1  RAP A 108      10.326  -0.766  30.602  1.00  5.98     0.292 C 
HETATM    2  O1  RAP A 108      10.791  -0.074  29.451  1.00  9.08    -0.302 OA
HETATM    3  C2  RAP A 108      10.310  -2.293  30.681  1.00  6.42     0.171 C 
HETATM    4  O2  RAP A 108       9.897  -0.102  31.543  1.00 14.08    -0.262 OA
HETATM    5  C3  RAP A 108      10.820  -2.778  32.030  1.00  5.50     0.033 C 
HETATM    6  O3  RAP A 108       9.206  -3.534  28.579  1.00 10.38    -0.264 OA
HETATM    7  C4  RAP A 108      12.330  -2.671  32.186  1.00  4.49     0.004 C 
HETATM    8  O4  RAP A 108      11.396  -5.425  27.699  1.00 10.60    -0.281 OA
HETATM    9  C5  RAP A 108      12.979  -3.415  31.033  1.00  4.19     0.024 C 
HETATM   10  O5  RAP A 108      12.672  -2.753  26.589  1.00 10.76    -0.332 OA
HETATM   11  C6  RAP A 108      12.537  -2.851  29.718  1.00  3.25     0.105 C 
HETATM   12  N7  RAP A 108      11.073  -2.989  29.639  1.00  8.46    -0.307 N 
HETATM   13  C8  RAP A 108      10.443  -3.550  28.596  1.00 10.06     0.297 C 
HETATM   14  O8  RAP A 108      14.624   8.327  31.805  1.00 18.31    -0.293 OA
HETATM   15  C9  RAP A 108      11.125  -4.225  27.559  1.00 11.13     0.279 C 
HETATM   16  C10 RAP A 108      11.543  -3.524  26.254  1.00 16.59     0.246 C 
HETATM   17  C11 RAP A 108      10.421  -2.575  25.663  1.00 10.40     0.059 C 
HETATM   18  O11 RAP A 108      13.365   0.759  30.664  1.00  9.49    -0.296 OA
HETATM   19  C12 RAP A 108      10.987  -1.665  24.549  1.00 12.17     0.008 C 
HETATM   20  C13 RAP A 108      12.269  -0.989  25.014  1.00 12.80     0.030 C 
HETATM   21  C14 RAP A 108      13.275  -1.952  25.635  1.00 10.37     0.121 C 
HETATM   22  C15 RAP A 108      14.332  -1.170  26.394  1.00  5.94     0.064 C 
HETATM   23  C16 RAP A 108      15.313  -0.356  25.559  1.00  9.79     0.136 C 
HETATM   24  C17 RAP A 108      16.286   0.402  26.435  1.00 15.52    -0.017 C 
HETATM   25  C18 RAP A 108      16.228   1.727  26.444  1.00 14.38    -0.006 C 
HETATM   26  C19 RAP A 108      17.084   2.598  27.262  1.00  9.73    -0.001 C 
HETATM   27  C20 RAP A 108      16.965   3.913  27.144  1.00 10.26    -0.000 C 
HETATM   28  C21 RAP A 108      17.727   4.831  28.011  1.00 11.40    -0.005 C 
HETATM   29  C22 RAP A 108      17.471   6.125  28.048  1.00 17.77    -0.026 C 
HETATM   30  C23 RAP A 108      18.143   7.096  28.995  1.00 15.64     0.022 C 
HETATM   31  C24 RAP A 108      17.033   7.784  29.771  1.00 14.68     0.012 C 
HETATM   32  C25 RAP A 108      16.020   6.896  30.469  1.00 11.87     0.061 C 
HETATM   33  C26 RAP A 108      14.744   7.668  30.775  1.00 11.65     0.180 C 
HETATM   34  C27 RAP A 108      13.621   7.572  29.747  1.00  8.13     0.203 C 
HETATM   35  C28 RAP A 108      12.726   6.303  29.918  1.00 10.80     0.163 C 
HETATM   36  C29 RAP A 108      13.332   5.031  29.293  1.00  9.60    -0.019 C 
HETATM   37  C30 RAP A 108      13.787   4.011  30.020  1.00  8.55    -0.025 C 
HETATM   38  C31 RAP A 108      14.374   2.668  29.563  1.00  8.43     0.079 C 
HETATM   39  C32 RAP A 108      13.326   1.567  29.731  1.00 10.69     0.157 C 
HETATM   40  C33 RAP A 108      12.200   1.565  28.703  1.00  6.51     0.095 C 
HETATM   41  C34 RAP A 108      10.847   1.305  29.332  1.00  9.62     0.132 C 
HETATM   42  C43 RAP A 108       9.128  -3.296  25.179  1.00 11.25     0.005 C 
HETATM   43  C44 RAP A 108      17.289  -0.461  27.222  1.00 14.40     0.029 C 
HETATM   44  C45 RAP A 108      18.978   8.114  28.232  1.00  9.23     0.005 C 
HETATM   45  C46 RAP A 108      16.598   6.272  31.741  1.00 15.99     0.008 C 
HETATM   46  C47 RAP A 108      13.381   5.045  27.777  1.00 14.60     0.029 C 
HETATM   47  C48 RAP A 108      15.606   2.347  30.425  1.00  9.37     0.013 C 
ENDROOT
BRANCH  41  48
HETATM   48  C35 RAP A 108       9.582   1.711  28.550  1.00  9.58     0.028 C 
HETATM   49  C49 RAP A 108       8.965   0.550  27.824  1.00  8.29     0.003 C 
BRANCH  48  50
HETATM   50  C36 RAP A 108       9.848   2.865  27.585  1.00 10.31     0.003 C 
BRANCH  50  51
HETATM   51  C37 RAP A 108       9.897   4.276  28.175  1.00 22.90     0.003 C 
HETATM   52  C38 RAP A 108       9.899   5.317  27.049  1.00 14.17     0.032 C 
HETATM   53  C39 RAP A 108      10.066   6.749  27.561  1.00 34.20     0.142 C 
HETATM   54  C40 RAP A 108       8.991   7.054  28.660  1.00 38.24     0.138 C 
HETATM   55  C41 RAP A 108       8.952   5.996  29.782  1.00 16.32     0.032 C 
HETATM   56  C42 RAP A 108       8.812   4.596  29.203  1.00 14.05     0.003 C 
BRANCH  53  57
HETATM   57  O12 RAP A 108       9.885   7.592  26.452  1.00 30.82    -0.352 OA
HETATM   58  C52 RAP A 108      11.029   8.002  25.785  1.00 28.14     0.174 C 
ENDBRANCH  53  57
BRANCH  54  59
HETATM   59  O13 RAP A 108       9.259   8.332  29.234  1.00 28.84    -0.382 OA
HETATM   60  HO3 RAP A 108      10.213   8.469  29.292  1.00 13.32     0.210 HD
ENDBRANCH  54  59
ENDBRANCH  50  51
ENDBRANCH  48  50
ENDBRANCH  41  48
BRANCH  35  61
HETATM   61  O10 RAP A 108      12.523   6.104  31.323  1.00 12.16    -0.378 OA
HETATM   62  HO1 RAP A 108      12.688   6.917  31.825  1.00 13.32     0.211 HD
ENDBRANCH  35  61
BRANCH  16  63
HETATM   63  O6  RAP A 108      11.867  -4.520  25.280  1.00 14.16    -0.358 OA
HETATM   64  HO6 RAP A 108      11.718  -5.384  25.675  1.00 13.32     0.213 HD
ENDBRANCH  16  63
BRANCH  34  65
HETATM   65  O9  RAP A 108      12.779   8.683  29.896  1.00 23.09    -0.344 OA
HETATM   66  C51 RAP A 108      12.617   9.466  28.766  1.00 19.04     0.175 C 
ENDBRANCH  34  65
BRANCH  23  67
HETATM   67  O7  RAP A 108      16.015  -1.243  24.745  1.00 20.17    -0.350 OA
HETATM   68  C50 RAP A 108      16.659  -0.688  23.642  1.00 28.36     0.175 C 
ENDBRANCH  23  67
TORSDOF 9
ENDMDL
MODEL 6
REMARK VINA RESULT:    -5.667      3.519     10.336
REMARK INTER + INTRA:         -10.521
REMARK INTER:                  -7.924
REMARK INTRA:                  -2.597
REMARK UNBOUND:                -2.369
REMARK  9 active torsions:
REMARK  status: ('A' for Active; 'I' for Inactive)
REMARK    1  A    between atoms: O6_12  and  C10_19 
REMARK    2  A    between atoms: O7_14  and  C16_29 
REMARK    3  A    between atoms: O9_18  and  C27_40 
REMARK    4  A    between atoms: O10_20  and  C28_41 
REMARK    5  A    between atoms: O12_24  and  C39_52 
REMARK    6  A    between atoms: O13_26  and  C40_53 
REMARK    7  A    between atoms: C34_47  and  C35_48 
REMARK    8  A    between atoms: C35_48  and  C36_49 
REMARK    9  A    between atoms: C36_49  and  C37_50 
ROOT
HETATM    1  C1  RAP A 108      12.569  -0.938  29.382  1.00  5.98     0.292 C 
HETATM    2  O1  RAP A 108      11.659  -1.698  28.598  1.00  9.08    -0.302 OA
HETATM    3  C2  RAP A 108      12.212  -0.433  30.780  1.00  6.42     0.171 C 
HETATM    4  O2  RAP A 108      13.662  -0.662  28.893  1.00 14.08    -0.262 OA
HETATM    5  C3  RAP A 108      13.366  -0.643  31.750  1.00  5.50     0.033 C 
HETATM    6  O3  RAP A 108       9.852   0.820  30.973  1.00 10.38    -0.264 OA
HETATM    7  C4  RAP A 108      13.536  -2.089  32.192  1.00  4.49     0.004 C 
HETATM    8  O4  RAP A 108       8.459  -0.726  33.168  1.00 10.60    -0.281 OA
HETATM    9  C5  RAP A 108      12.215  -2.566  32.768  1.00  4.19     0.024 C 
HETATM   10  O5  RAP A 108       8.143  -2.876  30.870  1.00 10.76    -0.332 OA
HETATM   11  C6  RAP A 108      11.116  -2.443  31.758  1.00  3.25     0.105 C 
HETATM   12  N7  RAP A 108      11.011  -1.024  31.380  1.00  8.46    -0.307 N 
HETATM   13  C8  RAP A 108       9.856  -0.343  31.399  1.00 10.06     0.297 C 
HETATM   14  O8  RAP A 108      16.271  -7.775  22.889  1.00 18.31    -0.293 OA
HETATM   15  C9  RAP A 108       8.666  -0.863  31.956  1.00 11.13     0.279 C 
HETATM   16  C10 RAP A 108       7.610  -1.593  31.106  1.00 16.59     0.246 C 
HETATM   17  C11 RAP A 108       7.320  -0.887  29.719  1.00 10.40     0.059 C 
HETATM   18  O11 RAP A 108      13.042  -4.287  29.017  1.00  9.49    -0.296 OA
HETATM   19  C12 RAP A 108       6.505  -1.807  28.781  1.00 12.17     0.008 C 
HETATM   20  C13 RAP A 108       7.134  -3.192  28.716  1.00 12.80     0.030 C 
HETATM   21  C14 RAP A 108       7.451  -3.782  30.087  1.00 10.37     0.121 C 
HETATM   22  C15 RAP A 108       8.394  -4.961  29.930  1.00  5.94     0.064 C 
HETATM   23  C16 RAP A 108       7.817  -6.219  29.292  1.00  9.79     0.136 C 
HETATM   24  C17 RAP A 108       8.866  -7.302  29.162  1.00 15.52    -0.017 C 
HETATM   25  C18 RAP A 108       9.251  -7.667  27.945  1.00 14.38    -0.006 C 
HETATM   26  C19 RAP A 108      10.276  -8.680  27.659  1.00  9.73    -0.001 C 
HETATM   27  C20 RAP A 108      10.536  -8.995  26.398  1.00 10.26    -0.000 C 
HETATM   28  C21 RAP A 108      11.623  -9.929  26.051  1.00 11.40    -0.005 C 
HETATM   29  C22 RAP A 108      12.027 -10.095  24.806  1.00 17.77    -0.026 C 
HETATM   30  C23 RAP A 108      13.205 -10.954  24.402  1.00 15.64     0.022 C 
HETATM   31  C24 RAP A 108      14.152 -10.056  23.624  1.00 14.68     0.012 C 
HETATM   32  C25 RAP A 108      14.576  -8.757  24.283  1.00 11.87     0.061 C 
HETATM   33  C26 RAP A 108      15.096  -7.770  23.247  1.00 11.65     0.180 C 
HETATM   34  C27 RAP A 108      14.090  -6.769  22.688  1.00  8.13     0.203 C 
HETATM   35  C28 RAP A 108      13.901  -5.506  23.589  1.00 10.80     0.163 C 
HETATM   36  C29 RAP A 108      12.937  -5.730  24.770  1.00  9.60    -0.019 C 
HETATM   37  C30 RAP A 108      13.342  -5.772  26.039  1.00  8.55    -0.025 C 
HETATM   38  C31 RAP A 108      12.520  -5.941  27.325  1.00  8.43     0.079 C 
HETATM   39  C32 RAP A 108      12.375  -4.588  28.022  1.00 10.69     0.157 C 
HETATM   40  C33 RAP A 108      11.397  -3.614  27.376  1.00  6.51     0.095 C 
HETATM   41  C34 RAP A 108      11.935  -2.198  27.337  1.00  9.62     0.132 C 
HETATM   42  C43 RAP A 108       6.659   0.521  29.816  1.00 11.25     0.005 C 
HETATM   43  C44 RAP A 108       9.370  -7.907  30.484  1.00 14.40     0.029 C 
HETATM   44  C45 RAP A 108      12.757 -12.132  23.550  1.00  9.23     0.005 C 
HETATM   45  C46 RAP A 108      15.616  -8.994  25.381  1.00 15.99     0.008 C 
HETATM   46  C47 RAP A 108      11.487  -5.913  24.366  1.00 14.60     0.029 C 
HETATM   47  C48 RAP A 108      13.247  -6.927  28.253  1.00  9.37     0.013 C 
ENDROOT
BRANCH  41  48
HETATM   48  C35 RAP A 108      11.308  -1.201  26.342  1.00  9.58     0.028 C 
HETATM   49  C49 RAP A 108      10.285  -0.315  26.994  1.00  8.29     0.003 C 
BRANCH  48  50
HETATM   50  C36 RAP A 108      10.710  -1.902  25.124  1.00 10.31     0.003 C 
BRANCH  50  51
HETATM   51  C37 RAP A 108      11.516  -1.859  23.823  1.00 22.90     0.003 C 
HETATM   52  C38 RAP A 108      13.008  -2.041  24.124  1.00 14.17     0.032 C 
HETATM   53  C39 RAP A 108      13.889  -1.892  22.882  1.00 34.20     0.142 C 
HETATM   54  C40 RAP A 108      13.383  -2.848  21.748  1.00 38.24     0.138 C 
HETATM   55  C41 RAP A 108      11.875  -2.702  21.459  1.00 16.32     0.032 C 
HETATM   56  C42 RAP A 108      11.061  -2.834  22.738  1.00 14.05     0.003 C 
BRANCH  53  57
HETATM   57  O12 RAP A 108      15.192  -2.243  23.273  1.00 30.82    -0.352 OA
HETATM   58  C52 RAP A 108      16.027  -1.207  23.662  1.00 28.14     0.174 C 
ENDBRANCH  53  57
BRANCH  54  59
HETATM   59  O13 RAP A 108      14.115  -2.583  20.553  1.00 28.84    -0.382 OA
HETATM   60  HO3 RAP A 108      14.835  -3.220  20.465  1.00 13.32     0.210 HD
ENDBRANCH  54  59
ENDBRANCH  50  51
ENDBRANCH  48  50
ENDBRANCH  41  48
BRANCH  35  61
HETATM   61  O10 RAP A 108      15.193  -5.128  24.080  1.00 12.16    -0.378 OA
HETATM   62  HO1 RAP A 108      15.154  -4.303  24.586  1.00 13.32     0.211 HD
ENDBRANCH  35  61
BRANCH  16  63
HETATM   63  O6  RAP A 108       6.392  -1.669  31.852  1.00 14.16    -0.358 OA
HETATM   64  HO6 RAP A 108       6.025  -0.783  31.915  1.00 13.32     0.213 HD
ENDBRANCH  16  63
BRANCH  34  65
HETATM   65  O9  RAP A 108      14.553  -6.312  21.446  1.00 23.09    -0.344 OA
HETATM   66  C51 RAP A 108      13.600  -6.235  20.444  1.00 19.04     0.175 C 
ENDBRANCH  34  65
BRANCH  23  67
HETATM   67  O7  RAP A 108       6.781  -6.672  30.105  1.00 20.17    -0.350 OA
HETATM   68  C50 RAP A 108       5.576  -6.954  29.468  1.00 28.36     0.175 C 
ENDBRANCH  23  67
TORSDOF 9
ENDMDL
MODEL 7
REMARK VINA RESULT:    -5.604      4.269      9.546
REMARK INTER + INTRA:         -10.431
REMARK INTER:                  -7.791
REMARK INTRA:                  -2.640
REMARK UNBOUND:                -2.369
REMARK  9 active torsions:
REMARK  status: ('A' for Active; 'I' for Inactive)
REMARK    1  A    between atoms: O6_12  and  C10_19 
REMARK    2  A    between atoms: O7_14  and  C16_29 
REMARK    3  A    between atoms: O9_18  and  C27_40 
REMARK    4  A    between atoms: O10_20  and  C28_41 
REMARK    5  A    between atoms: O12_24  and  C39_52 
REMARK    6  A    between atoms: O13_26  and  C40_53 
REMARK    7  A    between atoms: C34_47  and  C35_48 
REMARK    8  A    between atoms: C35_48  and  C36_49 
REMARK    9  A    between atoms: C36_49  and  C37_50 
ROOT
HETATM    1  C1  RAP A 108      11.372  -2.780  23.458  1.00  5.98     0.292 C 
HETATM    2  O1  RAP A 108      11.665  -2.961  24.837  1.00  9.08    -0.302 OA
HETATM    3  C2  RAP A 108      12.444  -2.379  22.445  1.00  6.42     0.171 C 
HETATM    4  O2  RAP A 108      10.208  -2.925  23.090  1.00 14.08    -0.262 OA
HETATM    5  C3  RAP A 108      12.324  -3.195  21.166  1.00  5.50     0.033 C 
HETATM    6  O3  RAP A 108      13.961  -0.288  23.155  1.00 10.38    -0.264 OA
HETATM    7  C4  RAP A 108      12.827  -4.624  21.304  1.00  4.49     0.004 C 
HETATM    8  O4  RAP A 108      16.766  -1.398  22.937  1.00 10.60    -0.281 OA
HETATM    9  C5  RAP A 108      14.256  -4.576  21.815  1.00  4.19     0.024 C 
HETATM   10  O5  RAP A 108      15.941  -2.855  25.620  1.00 10.76    -0.332 OA
HETATM   11  C6  RAP A 108      14.330  -3.854  23.125  1.00  3.25     0.105 C 
HETATM   12  N7  RAP A 108      13.830  -2.486  22.913  1.00  8.46    -0.307 N 
HETATM   13  C8  RAP A 108      14.507  -1.390  23.290  1.00 10.06     0.297 C 
HETATM   14  O8  RAP A 108       5.960  -9.524  28.735  1.00 18.31    -0.293 OA
HETATM   15  C9  RAP A 108      15.839  -1.433  23.757  1.00 11.13     0.279 C 
HETATM   16  C10 RAP A 108      16.185  -1.517  25.255  1.00 16.59     0.246 C 
HETATM   17  C11 RAP A 108      15.303  -0.562  26.159  1.00 10.40     0.059 C 
HETATM   18  O11 RAP A 108      11.553  -5.922  24.746  1.00  9.49    -0.296 OA
HETATM   19  C12 RAP A 108      15.462  -0.905  27.658  1.00 12.17     0.008 C 
HETATM   20  C13 RAP A 108      15.287  -2.400  27.883  1.00 12.80     0.030 C 
HETATM   21  C14 RAP A 108      16.113  -3.260  26.931  1.00 10.37     0.121 C 
HETATM   22  C15 RAP A 108      15.608  -4.692  26.967  1.00  5.94     0.064 C 
HETATM   23  C16 RAP A 108      15.875  -5.480  28.243  1.00  9.79     0.136 C 
HETATM   24  C17 RAP A 108      15.291  -6.874  28.162  1.00 15.52    -0.017 C 
HETATM   25  C18 RAP A 108      14.289  -7.187  28.973  1.00 14.38    -0.006 C 
HETATM   26  C19 RAP A 108      13.600  -8.486  28.992  1.00  9.73    -0.001 C 
HETATM   27  C20 RAP A 108      12.644  -8.695  29.886  1.00 10.26    -0.000 C 
HETATM   28  C21 RAP A 108      11.855  -9.941  29.885  1.00 11.40    -0.005 C 
HETATM   29  C22 RAP A 108      10.774 -10.080  30.629  1.00 17.77    -0.026 C 
HETATM   30  C23 RAP A 108       9.865 -11.288  30.588  1.00 15.64     0.022 C 
HETATM   31  C24 RAP A 108       8.471 -10.774  30.275  1.00 14.68     0.012 C 
HETATM   32  C25 RAP A 108       8.316  -9.886  29.054  1.00 11.87     0.061 C 
HETATM   33  C26 RAP A 108       7.030  -9.073  29.136  1.00 11.65     0.180 C 
HETATM   34  C27 RAP A 108       7.143  -7.671  29.727  1.00  8.13     0.203 C 
HETATM   35  C28 RAP A 108       7.592  -6.592  28.690  1.00 10.80     0.163 C 
HETATM   36  C29 RAP A 108       9.115  -6.555  28.459  1.00  9.60    -0.019 C 
HETATM   37  C30 RAP A 108       9.686  -6.948  27.321  1.00  8.55    -0.025 C 
HETATM   38  C31 RAP A 108      11.167  -6.937  26.913  1.00  8.43     0.079 C 
HETATM   39  C32 RAP A 108      11.428  -5.766  25.965  1.00 10.69     0.157 C 
HETATM   40  C33 RAP A 108      11.468  -4.387  26.614  1.00  6.51     0.095 C 
HETATM   41  C34 RAP A 108      10.740  -3.343  25.794  1.00  9.62     0.132 C 
HETATM   42  C43 RAP A 108      15.516   0.962  25.919  1.00 11.25     0.005 C 
HETATM   43  C44 RAP A 108      15.956  -7.820  27.146  1.00 14.40     0.029 C 
HETATM   44  C45 RAP A 108       9.880 -12.030  31.917  1.00  9.23     0.005 C 
HETATM   45  C46 RAP A 108       8.368 -10.696  27.756  1.00 15.99     0.008 C 
HETATM   46  C47 RAP A 108       9.914  -6.047  29.645  1.00 14.60     0.029 C 
HETATM   47  C48 RAP A 108      11.496  -8.260  26.204  1.00  9.37     0.013 C 
ENDROOT
BRANCH  41  48
HETATM   48  C35 RAP A 108      10.292  -2.042  26.489  1.00  9.58     0.028 C 
HETATM   49  C49 RAP A 108      11.275  -0.924  26.290  1.00  8.29     0.003 C 
BRANCH  48  50
HETATM   50  C36 RAP A 108      10.015  -2.251  27.977  1.00 10.31     0.003 C 
BRANCH  50  51
HETATM   51  C37 RAP A 108       8.685  -2.907  28.357  1.00 22.90     0.003 C 
HETATM   52  C38 RAP A 108       8.348  -2.602  29.821  1.00 14.17     0.032 C 
HETATM   53  C39 RAP A 108       7.090  -3.323  30.307  1.00 34.20     0.142 C 
HETATM   54  C40 RAP A 108       5.893  -3.024  29.339  1.00 38.24     0.138 C 
HETATM   55  C41 RAP A 108       6.229  -3.293  27.858  1.00 16.32     0.032 C 
HETATM   56  C42 RAP A 108       7.503  -2.568  27.449  1.00 14.05     0.003 C 
BRANCH  53  57
HETATM   57  O12 RAP A 108       6.816  -2.826  31.592  1.00 30.82    -0.352 OA
HETATM   58  C52 RAP A 108       6.637  -1.456  31.706  1.00 28.14     0.174 C 
ENDBRANCH  53  57
BRANCH  54  59
HETATM   59  O13 RAP A 108       4.776  -3.825  29.717  1.00 28.84    -0.382 OA
HETATM   60  HO3 RAP A 108       4.977  -4.300  30.533  1.00 13.32     0.210 HD
ENDBRANCH  54  59
ENDBRANCH  50  51
ENDBRANCH  48  50
ENDBRANCH  41  48
BRANCH  35  61
HETATM   61  O10 RAP A 108       6.920  -6.872  27.456  1.00 12.16    -0.378 OA
HETATM   62  HO1 RAP A 108       7.092  -7.776  27.154  1.00 13.32     0.211 HD
ENDBRANCH  35  61
BRANCH  16  63
HETATM   63  O6  RAP A 108      17.564  -1.177  25.429  1.00 14.16    -0.358 OA
HETATM   64  HO6 RAP A 108      18.095  -1.914  25.112  1.00 13.32     0.213 HD
ENDBRANCH  16  63
BRANCH  34  65
HETATM   65  O9  RAP A 108       5.881  -7.279  30.196  1.00 23.09    -0.344 OA
HETATM   66  C51 RAP A 108       5.863  -6.699  31.453  1.00 19.04     0.175 C 
ENDBRANCH  34  65
BRANCH  23  67
HETATM   67  O7  RAP A 108      17.256  -5.565  28.410  1.00 20.17    -0.350 OA
HETATM   68  C50 RAP A 108      17.735  -5.349  29.699  1.00 28.36     0.175 C 
ENDBRANCH  23  67
TORSDOF 9
ENDMDL
MODEL 8
REMARK VINA RESULT:    -5.601      2.980      8.977
REMARK INTER + INTRA:         -10.425
REMARK INTER:                  -8.224
REMARK INTRA:                  -2.201
REMARK UNBOUND:                -2.369
REMARK  9 active torsions:
REMARK  status: ('A' for Active; 'I' for Inactive)
REMARK    1  A    between atoms: O6_12  and  C10_19 
REMARK    2  A    between atoms: O7_14  and  C16_29 
REMARK    3  A    between atoms: O9_18  and  C27_40 
REMARK    4  A    between atoms: O10_20  and  C28_41 
REMARK    5  A    between atoms: O12_24  and  C39_52 
REMARK    6  A    between atoms: O13_26  and  C40_53 
REMARK    7  A    between atoms: C34_47  and  C35_48 
REMARK    8  A    between atoms: C35_48  and  C36_49 
REMARK    9  A    between atoms: C36_49  and  C37_50 
ROOT
HETATM    1  C1  RAP A 108       8.587   2.989  27.902  1.00  5.98     0.292 C 
HETATM    2  O1  RAP A 108       9.419   2.130  28.670  1.00  9.08    -0.302 OA
HETATM    3  C2  RAP A 108       7.544   3.900  28.548  1.00  6.42     0.171 C 
HETATM    4  O2  RAP A 108       8.703   2.964  26.679  1.00 14.08    -0.262 OA
HETATM    5  C3  RAP A 108       7.567   5.288  27.926  1.00  5.50     0.033 C 
HETATM    6  O3  RAP A 108       5.931   2.708  30.325  1.00 10.38    -0.264 OA
HETATM    7  C4  RAP A 108       8.750   6.137  28.371  1.00  4.49     0.004 C 
HETATM    8  O4  RAP A 108       6.286   4.418  32.794  1.00 10.60    -0.281 OA
HETATM    9  C5  RAP A 108       8.747   6.194  29.888  1.00  4.19     0.024 C 
HETATM   10  O5  RAP A 108       9.052   2.892  32.935  1.00 10.76    -0.332 OA
HETATM   11  C6  RAP A 108       8.827   4.818  30.474  1.00  3.25     0.105 C 
HETATM   12  N7  RAP A 108       7.656   4.060  30.002  1.00  8.46    -0.307 N 
HETATM   13  C8  RAP A 108       6.832   3.394  30.825  1.00 10.06     0.297 C 
HETATM   14  O8  RAP A 108      17.874   0.861  24.461  1.00 18.31    -0.293 OA
HETATM   15  C9  RAP A 108       6.898   3.502  32.232  1.00 11.13     0.279 C 
HETATM   16  C10 RAP A 108       7.704   2.516  33.097  1.00 16.59     0.246 C 
HETATM   17  C11 RAP A 108       7.529   1.005  32.658  1.00 10.40     0.059 C 
HETATM   18  O11 RAP A 108      11.857   3.792  28.381  1.00  9.49    -0.296 OA
HETATM   19  C12 RAP A 108       8.581   0.099  33.337  1.00 12.17     0.008 C 
HETATM   20  C13 RAP A 108       9.975   0.691  33.180  1.00 12.80     0.030 C 
HETATM   21  C14 RAP A 108      10.054   2.167  33.554  1.00 10.37     0.121 C 
HETATM   22  C15 RAP A 108      11.348   2.761  33.025  1.00  5.94     0.064 C 
HETATM   23  C16 RAP A 108      12.636   2.306  33.700  1.00  9.79     0.136 C 
HETATM   24  C17 RAP A 108      13.850   2.941  33.057  1.00 15.52    -0.017 C 
HETATM   25  C18 RAP A 108      14.701   2.160  32.406  1.00 14.38    -0.006 C 
HETATM   26  C19 RAP A 108      15.905   2.631  31.707  1.00  9.73    -0.001 C 
HETATM   27  C20 RAP A 108      16.708   1.744  31.135  1.00 10.26    -0.000 C 
HETATM   28  C21 RAP A 108      17.873   2.169  30.337  1.00 11.40    -0.005 C 
HETATM   29  C22 RAP A 108      18.558   1.316  29.599  1.00 17.77    -0.026 C 
HETATM   30  C23 RAP A 108      19.690   1.711  28.677  1.00 15.64     0.022 C 
HETATM   31  C24 RAP A 108      19.322   1.204  27.293  1.00 14.68     0.012 C 
HETATM   32  C25 RAP A 108      17.963   1.599  26.747  1.00 11.87     0.061 C 
HETATM   33  C26 RAP A 108      17.537   0.662  25.625  1.00 11.65     0.180 C 
HETATM   34  C27 RAP A 108      16.663  -0.525  26.018  1.00  8.13     0.203 C 
HETATM   35  C28 RAP A 108      15.143  -0.176  26.111  1.00 10.80     0.163 C 
HETATM   36  C29 RAP A 108      14.743   0.487  27.443  1.00  9.60    -0.019 C 
HETATM   37  C30 RAP A 108      14.376   1.764  27.537  1.00  8.55    -0.025 C 
HETATM   38  C31 RAP A 108      13.911   2.563  28.763  1.00  8.43     0.079 C 
HETATM   39  C32 RAP A 108      12.392   2.731  28.719  1.00 10.69     0.157 C 
HETATM   40  C33 RAP A 108      11.579   1.488  29.065  1.00  6.51     0.095 C 
HETATM   41  C34 RAP A 108      10.394   1.300  28.141  1.00  9.62     0.132 C 
HETATM   42  C43 RAP A 108       6.098   0.420  32.846  1.00 11.25     0.005 C 
HETATM   43  C44 RAP A 108      13.992   4.461  33.253  1.00 14.40     0.029 C 
HETATM   44  C45 RAP A 108      21.008   1.106  29.139  1.00  9.23     0.005 C 
HETATM   45  C46 RAP A 108      17.943   3.056  26.279  1.00 15.99     0.008 C 
HETATM   46  C47 RAP A 108      14.817  -0.436  28.645  1.00 14.60     0.029 C 
HETATM   47  C48 RAP A 108      14.586   3.943  28.742  1.00  9.37     0.013 C 
ENDROOT
BRANCH  41  48
HETATM   48  C35 RAP A 108       9.750  -0.098  28.047  1.00  9.58     0.028 C 
HETATM   49  C49 RAP A 108       9.217  -0.569  29.370  1.00  8.29     0.003 C 
BRANCH  48  50
HETATM   50  C36 RAP A 108      10.706  -1.134  27.457  1.00 10.31     0.003 C 
BRANCH  50  51
HETATM   51  C37 RAP A 108      10.435  -1.604  26.026  1.00 22.90     0.003 C 
HETATM   52  C38 RAP A 108      11.589  -1.186  25.108  1.00 14.17     0.032 C 
HETATM   53  C39 RAP A 108      11.333  -1.520  23.637  1.00 34.20     0.142 C 
HETATM   54  C40 RAP A 108      10.964  -3.036  23.488  1.00 38.24     0.138 C 
HETATM   55  C41 RAP A 108       9.828  -3.480  24.431  1.00 16.32     0.032 C 
HETATM   56  C42 RAP A 108      10.134  -3.094  25.871  1.00 14.05     0.003 C 
BRANCH  53  57
HETATM   57  O12 RAP A 108      12.526  -1.236  22.951  1.00 30.82    -0.352 OA
HETATM   58  C52 RAP A 108      13.636  -1.993  23.290  1.00 28.14     0.174 C 
ENDBRANCH  53  57
BRANCH  54  59
HETATM   59  O13 RAP A 108      10.578  -3.292  22.139  1.00 28.84    -0.382 OA
HETATM   60  HO3 RAP A 108       9.633  -3.122  22.034  1.00 13.32     0.210 HD
ENDBRANCH  54  59
ENDBRANCH  50  51
ENDBRANCH  48  50
ENDBRANCH  41  48
BRANCH  35  61
HETATM   61  O10 RAP A 108      14.833   0.700  25.020  1.00 12.16    -0.378 OA
HETATM   62  HO1 RAP A 108      14.087   1.281  25.231  1.00 13.32     0.211 HD
ENDBRANCH  35  61
BRANCH  16  63
HETATM   63  O6  RAP A 108       7.289   2.654  34.460  1.00 14.16    -0.358 OA
HETATM   64  HO6 RAP A 108       7.274   1.778  34.857  1.00 13.32     0.213 HD
ENDBRANCH  16  63
BRANCH  34  65
HETATM   65  O9  RAP A 108      16.789  -1.519  25.037  1.00 23.09    -0.344 OA
HETATM   66  C51 RAP A 108      16.550  -2.814  25.464  1.00 19.04     0.175 C 
ENDBRANCH  34  65
BRANCH  23  67
HETATM   67  O7  RAP A 108      12.570   2.684  35.040  1.00 20.17    -0.350 OA
HETATM   68  C50 RAP A 108      13.004   1.741  35.967  1.00 28.36     0.175 C 
ENDBRANCH  23  67
TORSDOF 9
ENDMDL
MODEL 9
REMARK VINA RESULT:    -5.543      4.681      9.379
REMARK INTER + INTRA:         -10.342
REMARK INTER:                  -8.144
REMARK INTRA:                  -2.197
REMARK UNBOUND:                -2.369
REMARK  9 active torsions:
REMARK  status: ('A' for Active; 'I' for Inactive)
REMARK    1  A    between atoms: O6_12  and  C10_19 
REMARK    2  A    between atoms: O7_14  and  C16_29 
REMARK    3  A    between atoms: O9_18  and  C27_40 
REMARK    4  A    between atoms: O10_20  and  C28_41 
REMARK    5  A    between atoms: O12_24  and  C39_52 
REMARK    6  A    between atoms: O13_26  and  C40_53 
REMARK    7  A    between atoms: C34_47  and  C35_48 
REMARK    8  A    between atoms: C35_48  and  C36_49 
REMARK    9  A    between atoms: C36_49  and  C37_50 
ROOT
HETATM    1  C1  RAP A 108      13.555  -3.327  23.105  1.00  5.98     0.292 C 
HETATM    2  O1  RAP A 108      14.437  -3.527  24.201  1.00  9.08    -0.302 OA
HETATM    3  C2  RAP A 108      12.041  -3.486  23.241  1.00  6.42     0.171 C 
HETATM    4  O2  RAP A 108      14.044  -3.047  22.013  1.00 14.08    -0.262 OA
HETATM    5  C3  RAP A 108      11.305  -2.358  22.534  1.00  5.50     0.033 C 
HETATM    6  O3  RAP A 108      11.232  -5.745  24.433  1.00 10.38    -0.264 OA
HETATM    7  C4  RAP A 108      11.348  -1.035  23.285  1.00  4.49     0.004 C 
HETATM    8  O4  RAP A 108       9.489  -4.722  26.683  1.00 10.60    -0.281 OA
HETATM    9  C5  RAP A 108      10.815  -1.270  24.687  1.00  4.19     0.024 C 
HETATM   10  O5  RAP A 108      12.292  -3.994  27.954  1.00 10.76    -0.332 OA
HETATM   11  C6  RAP A 108      11.621  -2.313  25.397  1.00  3.25     0.105 C 
HETATM   12  N7  RAP A 108      11.532  -3.558  24.615  1.00  8.46    -0.307 N 
HETATM   13  C8  RAP A 108      11.187  -4.738  25.152  1.00 10.06     0.297 C 
HETATM   14  O8  RAP A 108      22.176   1.981  23.440  1.00 18.31    -0.293 OA
HETATM   15  C9  RAP A 108      10.699  -4.870  26.471  1.00 11.13     0.279 C 
HETATM   16  C10 RAP A 108      11.620  -5.197  27.661  1.00 16.59     0.246 C 
HETATM   17  C11 RAP A 108      12.686  -6.323  27.340  1.00 10.40     0.059 C 
HETATM   18  O11 RAP A 108      14.977  -0.645  24.639  1.00  9.49    -0.296 OA
HETATM   19  C12 RAP A 108      13.773  -6.394  28.437  1.00 12.17     0.008 C 
HETATM   20  C13 RAP A 108      14.324  -5.006  28.730  1.00 12.80     0.030 C 
HETATM   21  C14 RAP A 108      13.241  -3.957  28.960  1.00 10.37     0.121 C 
HETATM   22  C15 RAP A 108      13.847  -2.567  28.872  1.00  5.94     0.064 C 
HETATM   23  C16 RAP A 108      14.779  -2.155  30.004  1.00  9.79     0.136 C 
HETATM   24  C17 RAP A 108      15.342  -0.768  29.777  1.00 15.52    -0.017 C 
HETATM   25  C18 RAP A 108      16.644  -0.643  29.555  1.00 14.38    -0.006 C 
HETATM   26  C19 RAP A 108      17.331   0.629  29.289  1.00  9.73    -0.001 C 
HETATM   27  C20 RAP A 108      18.647   0.631  29.134  1.00 10.26    -0.000 C 
HETATM   28  C21 RAP A 108      19.373   1.861  28.767  1.00 11.40    -0.005 C 
HETATM   29  C22 RAP A 108      20.643   1.839  28.410  1.00 17.77    -0.026 C 
HETATM   30  C23 RAP A 108      21.409   3.048  27.920  1.00 15.64     0.022 C 
HETATM   31  C24 RAP A 108      21.966   2.686  26.554  1.00 14.68     0.012 C 
HETATM   32  C25 RAP A 108      20.986   2.159  25.522  1.00 11.87     0.061 C 
HETATM   33  C26 RAP A 108      21.716   1.401  24.421  1.00 11.65     0.180 C 
HETATM   34  C27 RAP A 108      21.834  -0.110  24.591  1.00  8.13     0.203 C 
HETATM   35  C28 RAP A 108      20.575  -0.893  24.100  1.00 10.80     0.163 C 
HETATM   36  C29 RAP A 108      19.428  -0.925  25.128  1.00  9.60    -0.019 C 
HETATM   37  C30 RAP A 108      18.282  -0.267  24.957  1.00  8.55    -0.025 C 
HETATM   38  C31 RAP A 108      17.033  -0.224  25.850  1.00  8.43     0.079 C 
HETATM   39  C32 RAP A 108      15.943  -1.113  25.249  1.00 10.69     0.157 C 
HETATM   40  C33 RAP A 108      16.155  -2.614  25.404  1.00  6.51     0.095 C 
HETATM   41  C34 RAP A 108      15.812  -3.377  24.141  1.00  9.62     0.132 C 
HETATM   42  C43 RAP A 108      12.094  -7.737  27.062  1.00 11.25     0.005 C 
HETATM   43  C44 RAP A 108      14.328   0.387  29.859  1.00 14.40     0.029 C 
HETATM   44  C45 RAP A 108      22.532   3.411  28.881  1.00  9.23     0.005 C 
HETATM   45  C46 RAP A 108      20.125   3.280  24.935  1.00 15.99     0.008 C 
HETATM   46  C47 RAP A 108      19.719  -1.756  26.363  1.00 14.60     0.029 C 
HETATM   47  C48 RAP A 108      16.532   1.226  25.934  1.00  9.37     0.013 C 
ENDROOT
BRANCH  41  48
HETATM   48  C35 RAP A 108      16.383  -4.798  23.962  1.00  9.58     0.028 C 
HETATM   49  C49 RAP A 108      16.953  -5.347  25.239  1.00  8.29     0.003 C 
BRANCH  48  50
HETATM   50  C36 RAP A 108      17.419  -4.866  22.842  1.00 10.31     0.003 C 
BRANCH  50  51
HETATM   51  C37 RAP A 108      16.936  -5.331  21.466  1.00 22.90     0.003 C 
HETATM   52  C38 RAP A 108      15.644  -6.144  21.610  1.00 14.17     0.032 C 
HETATM   53  C39 RAP A 108      15.164  -6.742  20.286  1.00 34.20     0.142 C 
HETATM   54  C40 RAP A 108      15.050  -5.617  19.200  1.00 38.24     0.138 C 
HETATM   55  C41 RAP A 108      16.330  -4.767  19.069  1.00 16.32     0.032 C 
HETATM   56  C42 RAP A 108      16.765  -4.227  20.423  1.00 14.05     0.003 C 
BRANCH  53  57
HETATM   57  O12 RAP A 108      13.904  -7.309  20.538  1.00 30.82    -0.352 OA
HETATM   58  C52 RAP A 108      12.951  -6.483  21.113  1.00 28.14     0.174 C 
ENDBRANCH  53  57
BRANCH  54  59
HETATM   59  O13 RAP A 108      14.755  -6.213  17.939  1.00 28.84    -0.382 OA
HETATM   60  HO3 RAP A 108      13.798  -6.298  17.835  1.00 13.32     0.210 HD
ENDBRANCH  54  59
ENDBRANCH  50  51
ENDBRANCH  48  50
ENDBRANCH  41  48
BRANCH  35  61
HETATM   61  O10 RAP A 108      20.126  -0.273  22.888  1.00 12.16    -0.378 OA
HETATM   62  HO1 RAP A 108      20.709   0.454  22.624  1.00 13.32     0.211 HD
ENDBRANCH  35  61
BRANCH  16  63
HETATM   63  O6  RAP A 108      10.814  -5.621  28.764  1.00 14.16    -0.358 OA
HETATM   64  HO6 RAP A 108       9.947  -5.861  28.424  1.00 13.32     0.213 HD
ENDBRANCH  16  63
BRANCH  34  65
HETATM   65  O9  RAP A 108      22.917  -0.565  23.824  1.00 23.09    -0.344 OA
HETATM   66  C51 RAP A 108      23.130  -1.933  23.842  1.00 19.04     0.175 C 
ENDBRANCH  34  65
BRANCH  23  67
HETATM   67  O7  RAP A 108      14.043  -2.168  31.187  1.00 20.17    -0.350 OA
HETATM   68  C50 RAP A 108      14.661  -2.751  32.290  1.00 28.36     0.175 C 
ENDBRANCH  23  67
TORSDOF 9
ENDMDL
