MODEL 1
REMARK VINA RESULT:    -6.539      0.000      0.000
REMARK INTER + INTRA:         -11.468
REMARK INTER:                  -9.406
REMARK INTRA:                  -2.061
REMARK UNBOUND:                -2.061
REMARK  9 active torsions:
REMARK  status: ('A' for Active; 'I' for Inactive)
REMARK    1  A    between atoms: O6_12  and  C10_19 
REMARK    2  A    between atoms: O7_14  and  C16_29 
REMARK    3  A    between atoms: O9_18  and  C27_40 
REMARK    4  A    between atoms: O10_20  and  C28_41 
REMARK    5  A    between atoms: O12_24  and  C39_52 
REMARK    6  A    between atoms: O13_26  and  C40_53 
REMARK    7  A    between atoms: C34_47  and  C35_48 
REMARK    8  A    between atoms: C35_48  and  C36_49 
REMARK    9  A    between atoms: C36_49  and  C37_50 
ROOT
HETATM    1  C1  RAP A 108       6.079  -0.707  -6.022  1.00  5.98     0.292 C 
HETATM    2  O1  RAP A 108       5.926  -0.372  -7.395  1.00  9.08    -0.302 OA
HETATM    3  C2  RAP A 108       7.432  -0.637  -5.315  1.00  6.42     0.171 C 
HETATM    4  O2  RAP A 108       5.087  -1.093  -5.406  1.00 14.08    -0.262 OA
HETATM    5  C3  RAP A 108       7.301   0.004  -3.941  1.00  5.50     0.033 C 
HETATM    6  O3  RAP A 108       9.454  -1.841  -6.595  1.00 10.38    -0.264 OA
HETATM    7  C4  RAP A 108       7.118   1.514  -3.987  1.00  4.49     0.004 C 
HETATM    8  O4  RAP A 108      11.510   0.366  -6.812  1.00 10.60    -0.281 OA
HETATM    9  C5  RAP A 108       8.268   2.105  -4.782  1.00  4.19     0.024 C 
HETATM   10  O5  RAP A 108       9.531   1.409  -9.048  1.00 10.76    -0.332 OA
HETATM   11  C6  RAP A 108       8.313   1.530  -6.164  1.00  3.25     0.105 C 
HETATM   12  N7  RAP A 108       8.490   0.074  -6.039  1.00  8.46    -0.307 N 
HETATM   13  C8  RAP A 108       9.445  -0.607  -6.691  1.00 10.06     0.297 C 
HETATM   14  O8  RAP A 108      -2.740   3.197  -9.121  1.00 18.31    -0.293 OA
HETATM   15  C9  RAP A 108      10.483   0.024  -7.412  1.00 11.13     0.279 C 
HETATM   16  C10 RAP A 108      10.388   0.298  -8.923  1.00 16.59     0.246 C 
HETATM   17  C11 RAP A 108       9.788  -0.915  -9.746  1.00 10.40     0.059 C 
HETATM   18  O11 RAP A 108       4.627   2.244  -6.887  1.00  9.49    -0.296 OA
HETATM   19  C12 RAP A 108       9.421  -0.488 -11.186  1.00 12.17     0.008 C 
HETATM   20  C13 RAP A 108       8.595   0.790 -11.168  1.00 12.80     0.030 C 
HETATM   21  C14 RAP A 108       9.196   1.891 -10.300  1.00 10.37     0.121 C 
HETATM   22  C15 RAP A 108       8.154   2.964 -10.039  1.00  5.94     0.064 C 
HETATM   23  C16 RAP A 108       7.752   3.831 -11.226  1.00  9.79     0.136 C 
HETATM   24  C17 RAP A 108       6.683   4.831 -10.840  1.00 15.52    -0.017 C 
HETATM   25  C18 RAP A 108       5.477   4.706 -11.377  1.00 14.38    -0.006 C 
HETATM   26  C19 RAP A 108       4.332   5.578 -11.081  1.00  9.73    -0.001 C 
HETATM   27  C20 RAP A 108       3.189   5.382 -11.723  1.00 10.26    -0.000 C 
HETATM   28  C21 RAP A 108       1.982   6.162 -11.392  1.00 11.40    -0.005 C 
HETATM   29  C22 RAP A 108       0.795   5.844 -11.873  1.00 17.77    -0.026 C 
HETATM   30  C23 RAP A 108      -0.492   6.538 -11.484  1.00 15.64     0.022 C 
HETATM   31  C24 RAP A 108      -1.427   5.460 -10.963  1.00 14.68     0.012 C 
HETATM   32  C25 RAP A 108      -0.900   4.554  -9.866  1.00 11.87     0.061 C 
HETATM   33  C26 RAP A 108      -1.712   3.268  -9.790  1.00 11.65     0.180 C 
HETATM   34  C27 RAP A 108      -1.178   2.073 -10.574  1.00  8.13     0.203 C 
HETATM   35  C28 RAP A 108      -0.085   1.261  -9.806  1.00 10.80     0.163 C 
HETATM   36  C29 RAP A 108       1.323   1.880  -9.900  1.00  9.60    -0.019 C 
HETATM   37  C30 RAP A 108       1.939   2.444  -8.862  1.00  8.55    -0.025 C 
HETATM   38  C31 RAP A 108       3.341   3.061  -8.772  1.00  8.43     0.079 C 
HETATM   39  C32 RAP A 108       4.285   2.089  -8.064  1.00 10.69     0.157 C 
HETATM   40  C33 RAP A 108       4.732   0.885  -8.886  1.00  6.51     0.095 C 
HETATM   41  C34 RAP A 108       4.723  -0.398  -8.081  1.00  9.62     0.132 C 
HETATM   42  C43 RAP A 108      10.663  -2.204  -9.762  1.00 11.25     0.005 C 
HETATM   43  C44 RAP A 108       7.123   5.938  -9.865  1.00 14.40     0.029 C 
HETATM   44  C45 RAP A 108      -1.108   7.256 -12.676  1.00  9.23     0.005 C 
HETATM   45  C46 RAP A 108      -0.873   5.264  -8.510  1.00 15.99     0.008 C 
HETATM   46  C47 RAP A 108       1.945   1.807 -11.282  1.00 14.60     0.029 C 
HETATM   47  C48 RAP A 108       3.256   4.373  -7.976  1.00  9.37     0.013 C 
ENDROOT
BRANCH  41  48
HETATM   48  C35 RAP A 108       4.699  -1.741  -8.838  1.00  9.58     0.028 C 
HETATM   49  C49 RAP A 108       6.074  -2.194  -9.236  1.00  8.29     0.003 C 
BRANCH  48  50
HETATM   50  C36 RAP A 108       3.776  -1.699 -10.054  1.00 10.31     0.003 C 
BRANCH  50  51
HETATM   51  C37 RAP A 108       2.551  -2.616 -10.038  1.00 22.90     0.003 C 
HETATM   52  C38 RAP A 108       1.584  -2.221 -11.160  1.00 14.17     0.032 C 
HETATM   53  C39 RAP A 108       0.280  -3.020 -11.133  1.00 34.20     0.142 C 
HETATM   54  C40 RAP A 108       0.592  -4.556 -11.119  1.00 38.24     0.138 C 
HETATM   55  C41 RAP A 108       1.591  -4.963 -10.017  1.00 16.32     0.032 C 
HETATM   56  C42 RAP A 108       2.852  -4.113 -10.086  1.00 14.05     0.003 C 
BRANCH  53  57
HETATM   57  O12 RAP A 108      -0.424  -2.674 -12.298  1.00 30.82    -0.352 OA
HETATM   58  C52 RAP A 108       0.309  -2.601 -13.472  1.00 28.14     0.174 C 
ENDBRANCH  53  57
BRANCH  54  59
HETATM   59  O13 RAP A 108      -0.624  -5.278 -10.936  1.00 28.84    -0.382 OA
HETATM   60  HO3 RAP A 108      -0.738  -5.912 -11.656  1.00 13.32     0.210 HD
ENDBRANCH  54  59
ENDBRANCH  50  51
ENDBRANCH  48  50
ENDBRANCH  41  48
BRANCH  35  61
HETATM   61  O10 RAP A 108      -0.491   1.182  -8.434  1.00 12.16    -0.378 OA
HETATM   62  HO1 RAP A 108      -1.181   1.830  -8.229  1.00 13.32     0.211 HD
ENDBRANCH  35  61
BRANCH  16  63
HETATM   63  O6  RAP A 108      11.696   0.595  -9.421  1.00 14.16    -0.358 OA
HETATM   64  HO6 RAP A 108      12.058   1.314  -8.896  1.00 13.32     0.213 HD
ENDBRANCH  16  63
BRANCH  34  65
HETATM   65  O9  RAP A 108      -2.238   1.188 -10.821  1.00 23.09    -0.344 OA
HETATM   66  C51 RAP A 108      -1.962   0.156 -11.702  1.00 19.04     0.175 C 
ENDBRANCH  34  65
BRANCH  23  67
HETATM   67  O7  RAP A 108       8.888   4.511 -11.660  1.00 20.17    -0.350 OA
HETATM   68  C50 RAP A 108       9.027   4.660 -13.037  1.00 28.36     0.175 C 
ENDBRANCH  23  67
TORSDOF 9
ENDMDL
MODEL 2
REMARK VINA RESULT:    -6.332      6.328     12.143
REMARK INTER + INTRA:         -11.170
REMARK INTER:                  -8.757
REMARK INTRA:                  -2.413
REMARK UNBOUND:                -2.061
REMARK  9 active torsions:
REMARK  status: ('A' for Active; 'I' for Inactive)
REMARK    1  A    between atoms: O6_12  and  C10_19 
REMARK    2  A    between atoms: O7_14  and  C16_29 
REMARK    3  A    between atoms: O9_18  and  C27_40 
REMARK    4  A    between atoms: O10_20  and  C28_41 
REMARK    5  A    between atoms: O12_24  and  C39_52 
REMARK    6  A    between atoms: O13_26  and  C40_53 
REMARK    7  A    between atoms: C34_47  and  C35_48 
REMARK    8  A    between atoms: C35_48  and  C36_49 
REMARK    9  A    between atoms: C36_49  and  C37_50 
ROOT
HETATM    1  C1  RAP A 108      15.053  -1.299  -1.756  1.00  5.98     0.292 C 
HETATM    2  O1  RAP A 108      13.708  -1.616  -1.423  1.00  9.08    -0.302 OA
HETATM    3  C2  RAP A 108      16.199  -2.285  -1.533  1.00  6.42     0.171 C 
HETATM    4  O2  RAP A 108      15.289  -0.181  -2.209  1.00 14.08    -0.262 OA
HETATM    5  C3  RAP A 108      17.138  -2.317  -2.730  1.00  5.50     0.033 C 
HETATM    6  O3  RAP A 108      16.288  -3.402   0.901  1.00 10.38    -0.264 OA
HETATM    7  C4  RAP A 108      16.574  -3.067  -3.928  1.00  4.49     0.004 C 
HETATM    8  O4  RAP A 108      16.291  -6.360   0.274  1.00 10.60    -0.281 OA
HETATM    9  C5  RAP A 108      16.187  -4.462  -3.473  1.00  4.19     0.024 C 
HETATM   10  O5  RAP A 108      13.240  -5.801  -0.342  1.00 10.76    -0.332 OA
HETATM   11  C6  RAP A 108      15.186  -4.403  -2.361  1.00  3.25     0.105 C 
HETATM   12  N7  RAP A 108      15.799  -3.667  -1.243  1.00  8.46    -0.307 N 
HETATM   13  C8  RAP A 108      15.834  -4.136   0.013  1.00 10.06     0.297 C 
HETATM   14  O8  RAP A 108       7.589   2.836  -7.216  1.00 18.31    -0.293 OA
HETATM   15  C9  RAP A 108      15.454  -5.453   0.353  1.00 11.13     0.279 C 
HETATM   16  C10 RAP A 108      14.031  -5.804   0.824  1.00 16.59     0.246 C 
HETATM   17  C11 RAP A 108      13.436  -4.762   1.858  1.00 10.40     0.059 C 
HETATM   18  O11 RAP A 108      12.832  -2.035  -4.224  1.00  9.49    -0.296 OA
HETATM   19  C12 RAP A 108      11.918  -4.975   2.057  1.00 12.17     0.008 C 
HETATM   20  C13 RAP A 108      11.212  -5.069   0.711  1.00 12.80     0.030 C 
HETATM   21  C14 RAP A 108      11.880  -6.038  -0.259  1.00 10.37     0.121 C 
HETATM   22  C15 RAP A 108      11.357  -5.798  -1.664  1.00  5.94     0.064 C 
HETATM   23  C16 RAP A 108       9.911  -6.198  -1.933  1.00  9.79     0.136 C 
HETATM   24  C17 RAP A 108       9.505  -5.873  -3.355  1.00 15.52    -0.017 C 
HETATM   25  C18 RAP A 108       8.583  -4.940  -3.551  1.00 14.38    -0.006 C 
HETATM   26  C19 RAP A 108       8.107  -4.495  -4.869  1.00  9.73    -0.001 C 
HETATM   27  C20 RAP A 108       7.141  -3.589  -4.933  1.00 10.26    -0.000 C 
HETATM   28  C21 RAP A 108       6.697  -3.035  -6.225  1.00 11.40    -0.005 C 
HETATM   29  C22 RAP A 108       5.888  -1.994  -6.294  1.00 17.77    -0.026 C 
HETATM   30  C23 RAP A 108       5.487  -1.316  -7.586  1.00 15.64     0.022 C 
HETATM   31  C24 RAP A 108       5.871   0.147  -7.447  1.00 14.68     0.012 C 
HETATM   32  C25 RAP A 108       7.302   0.455  -7.048  1.00 11.87     0.061 C 
HETATM   33  C26 RAP A 108       7.416   1.865  -6.484  1.00 11.65     0.180 C 
HETATM   34  C27 RAP A 108       7.316   2.006  -4.969  1.00  8.13     0.203 C 
HETATM   35  C28 RAP A 108       8.669   1.754  -4.228  1.00 10.80     0.163 C 
HETATM   36  C29 RAP A 108       8.984   0.262  -4.011  1.00  9.60    -0.019 C 
HETATM   37  C30 RAP A 108       9.964  -0.374  -4.651  1.00  8.55    -0.025 C 
HETATM   38  C31 RAP A 108      10.436  -1.830  -4.524  1.00  8.43     0.079 C 
HETATM   39  C32 RAP A 108      11.724  -1.880  -3.701  1.00 10.69     0.157 C 
HETATM   40  C33 RAP A 108      11.558  -1.672  -2.200  1.00  6.51     0.095 C 
HETATM   41  C34 RAP A 108      12.629  -0.770  -1.622  1.00  9.62     0.132 C 
HETATM   42  C43 RAP A 108      14.166  -4.700   3.232  1.00 11.25     0.005 C 
HETATM   43  C44 RAP A 108      10.198  -6.699  -4.454  1.00 14.40     0.029 C 
HETATM   44  C45 RAP A 108       3.992  -1.459  -7.837  1.00  9.23     0.005 C 
HETATM   45  C46 RAP A 108       8.270   0.255  -8.217  1.00 15.99     0.008 C 
HETATM   46  C47 RAP A 108       8.072  -0.430  -3.015  1.00 14.60     0.029 C 
HETATM   47  C48 RAP A 108      10.696  -2.392  -5.930  1.00  9.37     0.013 C 
ENDROOT
BRANCH  41  48
HETATM   48  C35 RAP A 108      12.367  -0.096  -0.261  1.00  9.58     0.028 C 
HETATM   49  C49 RAP A 108      12.421  -1.073   0.878  1.00  8.29     0.003 C 
BRANCH  48  50
HETATM   50  C36 RAP A 108      11.047   0.672  -0.244  1.00 10.31     0.003 C 
BRANCH  50  51
HETATM   51  C37 RAP A 108      10.900   1.837  -1.226  1.00 22.90     0.003 C 
HETATM   52  C38 RAP A 108       9.975   2.908  -0.636  1.00 14.17     0.032 C 
HETATM   53  C39 RAP A 108       9.687   4.051  -1.611  1.00 34.20     0.142 C 
HETATM   54  C40 RAP A 108      11.033   4.648  -2.149  1.00 38.24     0.138 C 
HETATM   55  C41 RAP A 108      11.990   3.579  -2.713  1.00 16.32     0.032 C 
HETATM   56  C42 RAP A 108      12.211   2.461  -1.704  1.00 14.05     0.003 C 
BRANCH  53  57
HETATM   57  O12 RAP A 108       8.975   5.023  -0.889  1.00 30.82    -0.352 OA
HETATM   58  C52 RAP A 108       9.646   5.640   0.155  1.00 28.14     0.174 C 
ENDBRANCH  53  57
BRANCH  54  59
HETATM   59  O13 RAP A 108      10.746   5.602  -3.170  1.00 28.84    -0.382 OA
HETATM   60  HO3 RAP A 108      11.570   5.915  -3.564  1.00 13.32     0.210 HD
ENDBRANCH  54  59
ENDBRANCH  50  51
ENDBRANCH  48  50
ENDBRANCH  41  48
BRANCH  35  61
HETATM   61  O10 RAP A 108       9.707   2.362  -5.007  1.00 12.16    -0.378 OA
HETATM   62  HO1 RAP A 108      10.531   2.438  -4.503  1.00 13.32     0.211 HD
ENDBRANCH  35  61
BRANCH  16  63
HETATM   63  O6  RAP A 108      14.053  -7.099   1.431  1.00 14.16    -0.358 OA
HETATM   64  HO6 RAP A 108      13.155  -7.443   1.433  1.00 13.32     0.213 HD
ENDBRANCH  16  63
BRANCH  34  65
HETATM   65  O9  RAP A 108       6.929   3.320  -4.665  1.00 23.09    -0.344 OA
HETATM   66  C51 RAP A 108       5.580   3.503  -4.414  1.00 19.04     0.175 C 
ENDBRANCH  34  65
BRANCH  23  67
HETATM   67  O7  RAP A 108       9.803  -7.571  -1.723  1.00 20.17    -0.350 OA
HETATM   68  C50 RAP A 108       8.715  -7.994  -0.965  1.00 28.36     0.175 C 
ENDBRANCH  23  67
TORSDOF 9
ENDMDL
MODEL 3
REMARK VINA RESULT:    -6.310      2.918      8.438
REMARK INTER + INTRA:         -11.138
REMARK INTER:                  -8.722
REMARK INTRA:                  -2.415
REMARK UNBOUND:                -2.061
REMARK  9 active torsions:
REMARK  status: ('A' for Active; 'I' for Inactive)
REMARK    1  A    between atoms: O6_12  and  C10_19 
REMARK    2  A    between atoms: O7_14  and  C16_29 
REMARK    3  A    between atoms: O9_18  and  C27_40 
REMARK    4  A    between atoms: O10_20  and  C28_41 
REMARK    5  A    between atoms: O12_24  and  C39_52 
REMARK    6  A    between atoms: O13_26  and  C40_53 
REMARK    7  A    between atoms: C34_47  and  C35_48 
REMARK    8  A    between atoms: C35_48  and  C36_49 
REMARK    9  A    between atoms: C36_49  and  C37_50 
ROOT
HETATM    1  C1  RAP A 108       7.537   1.852 -12.489  1.00  5.98     0.292 C 
HETATM    2  O1  RAP A 108       6.561   1.703 -11.466  1.00  9.08    -0.302 OA
HETATM    3  C2  RAP A 108       8.421   3.094 -12.593  1.00  6.42     0.171 C 
HETATM    4  O2  RAP A 108       7.639   0.958 -13.326  1.00 14.08    -0.262 OA
HETATM    5  C3  RAP A 108       9.866   2.717 -12.884  1.00  5.50     0.033 C 
HETATM    6  O3  RAP A 108       7.122   5.434 -12.469  1.00 10.38    -0.264 OA
HETATM    7  C4  RAP A 108      10.604   2.153 -11.678  1.00  4.49     0.004 C 
HETATM    8  O4  RAP A 108       8.535   6.858 -10.205  1.00 10.60    -0.281 OA
HETATM    9  C5  RAP A 108      10.496   3.157 -10.545  1.00  4.19     0.024 C 
HETATM   10  O5  RAP A 108       6.873   4.819  -8.450  1.00 10.76    -0.332 OA
HETATM   11  C6  RAP A 108       9.063   3.435 -10.212  1.00  3.25     0.105 C 
HETATM   12  N7  RAP A 108       8.417   3.975 -11.420  1.00  8.46    -0.307 N 
HETATM   13  C8  RAP A 108       7.705   5.112 -11.425  1.00 10.06     0.297 C 
HETATM   14  O8  RAP A 108       5.356  -7.467  -9.170  1.00 18.31    -0.293 OA
HETATM   15  C9  RAP A 108       7.657   5.994 -10.323  1.00 11.13     0.279 C 
HETATM   16  C10 RAP A 108       6.546   5.925  -9.260  1.00 16.59     0.246 C 
HETATM   17  C11 RAP A 108       5.102   5.712  -9.872  1.00 10.40     0.059 C 
HETATM   18  O11 RAP A 108       8.127  -0.258  -9.888  1.00  9.49    -0.296 OA
HETATM   19  C12 RAP A 108       4.078   5.337  -8.777  1.00 12.17     0.008 C 
HETATM   20  C13 RAP A 108       4.617   4.208  -7.908  1.00 12.80     0.030 C 
HETATM   21  C14 RAP A 108       6.039   4.449  -7.411  1.00 10.37     0.121 C 
HETATM   22  C15 RAP A 108       6.624   3.150  -6.886  1.00  5.94     0.064 C 
HETATM   23  C16 RAP A 108       6.038   2.612  -5.586  1.00  9.79     0.136 C 
HETATM   24  C17 RAP A 108       6.681   1.299  -5.193  1.00 15.52    -0.017 C 
HETATM   25  C18 RAP A 108       5.935   0.202  -5.205  1.00 14.38    -0.006 C 
HETATM   26  C19 RAP A 108       6.422  -1.146  -4.878  1.00  9.73    -0.001 C 
HETATM   27  C20 RAP A 108       5.565  -2.157  -4.875  1.00 10.26    -0.000 C 
HETATM   28  C21 RAP A 108       6.017  -3.543  -4.653  1.00 11.40    -0.005 C 
HETATM   29  C22 RAP A 108       5.218  -4.575  -4.847  1.00 17.77    -0.026 C 
HETATM   30  C23 RAP A 108       5.657  -6.019  -4.742  1.00 15.64     0.022 C 
HETATM   31  C24 RAP A 108       5.320  -6.674  -6.071  1.00 14.68     0.012 C 
HETATM   32  C25 RAP A 108       5.837  -5.999  -7.328  1.00 11.87     0.061 C 
HETATM   33  C26 RAP A 108       5.048  -6.453  -8.549  1.00 11.65     0.180 C 
HETATM   34  C27 RAP A 108       3.869  -5.581  -8.966  1.00  8.13     0.203 C 
HETATM   35  C28 RAP A 108       4.277  -4.365  -9.859  1.00 10.80     0.163 C 
HETATM   36  C29 RAP A 108       4.809  -3.162  -9.057  1.00  9.60    -0.019 C 
HETATM   37  C30 RAP A 108       6.085  -2.779  -9.085  1.00  8.55    -0.025 C 
HETATM   38  C31 RAP A 108       6.768  -1.592  -8.389  1.00  8.43     0.079 C 
HETATM   39  C32 RAP A 108       7.011  -0.475  -9.404  1.00 10.69     0.157 C 
HETATM   40  C33 RAP A 108       5.779   0.319  -9.822  1.00  6.51     0.095 C 
HETATM   41  C34 RAP A 108       5.748   0.593 -11.311  1.00  9.62     0.132 C 
HETATM   42  C43 RAP A 108       4.568   6.890 -10.741  1.00 11.25     0.005 C 
HETATM   43  C44 RAP A 108       8.162   1.376  -4.782  1.00 14.40     0.029 C 
HETATM   44  C45 RAP A 108       4.943  -6.725  -3.598  1.00  9.23     0.005 C 
HETATM   45  C46 RAP A 108       7.335  -6.241  -7.525  1.00 15.99     0.008 C 
HETATM   46  C47 RAP A 108       3.760  -2.458  -8.218  1.00 14.60     0.029 C 
HETATM   47  C48 RAP A 108       8.108  -2.063  -7.805  1.00  9.37     0.013 C 
ENDROOT
BRANCH  41  48
HETATM   48  C35 RAP A 108       4.401   0.964 -11.963  1.00  9.58     0.028 C 
HETATM   49  C49 RAP A 108       4.478   0.975 -13.463  1.00  8.29     0.003 C 
BRANCH  48  50
HETATM   50  C36 RAP A 108       3.858   2.295 -11.446  1.00 10.31     0.003 C 
BRANCH  50  51
HETATM   51  C37 RAP A 108       2.717   2.240 -10.427  1.00 22.90     0.003 C 
HETATM   52  C38 RAP A 108       1.658   3.295 -10.766  1.00 14.17     0.032 C 
HETATM   53  C39 RAP A 108       0.542   3.378  -9.723  1.00 34.20     0.142 C 
HETATM   54  C40 RAP A 108      -0.077   1.958  -9.487  1.00 38.24     0.138 C 
HETATM   55  C41 RAP A 108       0.980   0.877  -9.179  1.00 16.32     0.032 C 
HETATM   56  C42 RAP A 108       2.071   0.867 -10.240  1.00 14.05     0.003 C 
BRANCH  53  57
HETATM   57  O12 RAP A 108      -0.425   4.254 -10.243  1.00 30.82    -0.352 OA
HETATM   58  C52 RAP A 108      -0.620   5.444  -9.560  1.00 28.14     0.174 C 
ENDBRANCH  53  57
BRANCH  54  59
HETATM   59  O13 RAP A 108      -1.003   2.026  -8.404  1.00 28.84    -0.382 OA
HETATM   60  HO3 RAP A 108      -1.903   1.928  -8.739  1.00 13.32     0.210 HD
ENDBRANCH  54  59
ENDBRANCH  50  51
ENDBRANCH  48  50
ENDBRANCH  41  48
BRANCH  35  61
HETATM   61  O10 RAP A 108       5.280  -4.821 -10.776  1.00 12.16    -0.378 OA
HETATM   62  HO1 RAP A 108       5.090  -4.534 -11.682  1.00 13.32     0.211 HD
ENDBRANCH  35  61
BRANCH  16  63
HETATM   63  O6  RAP A 108       6.555   7.140  -8.505  1.00 14.16    -0.358 OA
HETATM   64  HO6 RAP A 108       7.143   7.019  -7.753  1.00 13.32     0.213 HD
ENDBRANCH  16  63
BRANCH  34  65
HETATM   65  O9  RAP A 108       2.982  -6.358  -9.725  1.00 23.09    -0.344 OA
HETATM   66  C51 RAP A 108       1.874  -5.691 -10.219  1.00 19.04     0.175 C 
ENDBRANCH  34  65
BRANCH  23  67
HETATM   67  O7  RAP A 108       6.271   3.558  -4.590  1.00 20.17    -0.350 OA
HETATM   68  C50 RAP A 108       5.165   3.945  -3.838  1.00 28.36     0.175 C 
ENDBRANCH  23  67
TORSDOF 9
ENDMDL
MODEL 4
REMARK VINA RESULT:    -6.253      5.734     10.296
REMARK INTER + INTRA:         -11.057
REMARK INTER:                  -8.240
REMARK INTRA:                  -2.816
REMARK UNBOUND:                -2.061
REMARK  9 active torsions:
REMARK  status: ('A' for Active; 'I' for Inactive)
REMARK    1  A    between atoms: O6_12  and  C10_19 
REMARK    2  A    between atoms: O7_14  and  C16_29 
REMARK    3  A    between atoms: O9_18  and  C27_40 
REMARK    4  A    between atoms: O10_20  and  C28_41 
REMARK    5  A    between atoms: O12_24  and  C39_52 
REMARK    6  A    between atoms: O13_26  and  C40_53 
REMARK    7  A    between atoms: C34_47  and  C35_48 
REMARK    8  A    between atoms: C35_48  and  C36_49 
REMARK    9  A    between atoms: C36_49  and  C37_50 
ROOT
HETATM    1  C1  RAP A 108      13.537  -3.362  -0.844  1.00  5.98     0.292 C 
HETATM    2  O1  RAP A 108      13.417  -2.327  -1.810  1.00  9.08    -0.302 OA
HETATM    3  C2  RAP A 108      14.176  -3.126   0.524  1.00  6.42     0.171 C 
HETATM    4  O2  RAP A 108      13.136  -4.484  -1.146  1.00 14.08    -0.262 OA
HETATM    5  C3  RAP A 108      13.363  -3.783   1.630  1.00  5.50     0.033 C 
HETATM    6  O3  RAP A 108      16.550  -1.885   0.477  1.00 10.38    -0.264 OA
HETATM    7  C4  RAP A 108      12.083  -3.035   1.973  1.00  4.49     0.004 C 
HETATM    8  O4  RAP A 108      16.101   0.475   2.314  1.00 10.60    -0.281 OA
HETATM    9  C5  RAP A 108      12.448  -1.602   2.311  1.00  4.19     0.024 C 
HETATM   10  O5  RAP A 108      14.477   1.559  -0.173  1.00 10.76    -0.332 OA
HETATM   11  C6  RAP A 108      13.159  -0.947   1.167  1.00  3.25     0.105 C 
HETATM   12  N7  RAP A 108      14.381  -1.722   0.895  1.00  8.46    -0.307 N 
HETATM   13  C8  RAP A 108      15.598  -1.165   0.802  1.00 10.06     0.297 C 
HETATM   14  O8  RAP A 108       5.711  -3.593  -7.272  1.00 18.31    -0.293 OA
HETATM   15  C9  RAP A 108      15.853   0.184   1.137  1.00 11.13     0.279 C 
HETATM   16  C10 RAP A 108      15.838   1.310   0.088  1.00 16.59     0.246 C 
HETATM   17  C11 RAP A 108      16.564   0.920  -1.264  1.00 10.40     0.059 C 
HETATM   18  O11 RAP A 108      10.507  -1.924  -1.409  1.00  9.49    -0.296 OA
HETATM   19  C12 RAP A 108      16.255   1.942  -2.382  1.00 12.17     0.008 C 
HETATM   20  C13 RAP A 108      14.757   2.199  -2.469  1.00 12.80     0.030 C 
HETATM   21  C14 RAP A 108      14.112   2.500  -1.119  1.00 10.37     0.121 C 
HETATM   22  C15 RAP A 108      12.603   2.373  -1.233  1.00  5.94     0.064 C 
HETATM   23  C16 RAP A 108      11.886   3.442  -2.049  1.00  9.79     0.136 C 
HETATM   24  C17 RAP A 108      10.397   3.179  -2.115  1.00 15.52    -0.017 C 
HETATM   25  C18 RAP A 108       9.861   2.872  -3.288  1.00 14.38    -0.006 C 
HETATM   26  C19 RAP A 108       8.440   2.562  -3.505  1.00  9.73    -0.001 C 
HETATM   27  C20 RAP A 108       8.015   2.320  -4.737  1.00 10.26    -0.000 C 
HETATM   28  C21 RAP A 108       6.624   1.907  -4.999  1.00 11.40    -0.005 C 
HETATM   29  C22 RAP A 108       6.239   1.468  -6.182  1.00 17.77    -0.026 C 
HETATM   30  C23 RAP A 108       4.857   0.929  -6.480  1.00 15.64     0.022 C 
HETATM   31  C24 RAP A 108       5.047  -0.471  -7.038  1.00 14.68     0.012 C 
HETATM   32  C25 RAP A 108       5.886  -1.437  -6.221  1.00 11.87     0.061 C 
HETATM   33  C26 RAP A 108       6.388  -2.584  -7.087  1.00 11.65     0.180 C 
HETATM   34  C27 RAP A 108       7.774  -2.423  -7.702  1.00  8.13     0.203 C 
HETATM   35  C28 RAP A 108       8.935  -2.831  -6.738  1.00 10.80     0.163 C 
HETATM   36  C29 RAP A 108       9.315  -1.729  -5.730  1.00  9.60    -0.019 C 
HETATM   37  C30 RAP A 108       9.069  -1.824  -4.424  1.00  8.55    -0.025 C 
HETATM   38  C31 RAP A 108       9.416  -0.851  -3.288  1.00  8.43     0.079 C 
HETATM   39  C32 RAP A 108      10.622  -1.379  -2.511  1.00 10.69     0.157 C 
HETATM   40  C33 RAP A 108      11.970  -1.239  -3.209  1.00  6.51     0.095 C 
HETATM   41  C34 RAP A 108      12.829  -2.477  -3.055  1.00  9.62     0.132 C 
HETATM   42  C43 RAP A 108      18.099   0.680  -1.149  1.00 11.25     0.005 C 
HETATM   43  C44 RAP A 108       9.633   3.329  -0.787  1.00 14.40     0.029 C 
HETATM   44  C45 RAP A 108       4.129   1.814  -7.481  1.00  9.23     0.005 C 
HETATM   45  C46 RAP A 108       5.117  -1.965  -5.007  1.00 15.99     0.008 C 
HETATM   46  C47 RAP A 108       9.981  -0.517  -6.353  1.00 14.60     0.029 C 
HETATM   47  C48 RAP A 108       8.206  -0.733  -2.348  1.00  9.37     0.013 C 
ENDROOT
BRANCH  41  48
HETATM   48  C35 RAP A 108      13.992  -2.694  -4.045  1.00  9.58     0.028 C 
HETATM   49  C49 RAP A 108      15.211  -1.902  -3.672  1.00  8.29     0.003 C 
BRANCH  48  50
HETATM   50  C36 RAP A 108      13.582  -2.397  -5.487  1.00 10.31     0.003 C 
BRANCH  50  51
HETATM   51  C37 RAP A 108      13.157  -3.585  -6.354  1.00 22.90     0.003 C 
HETATM   52  C38 RAP A 108      12.087  -4.409  -5.629  1.00 14.17     0.032 C 
HETATM   53  C39 RAP A 108      11.697  -5.679  -6.386  1.00 34.20     0.142 C 
HETATM   54  C40 RAP A 108      11.288  -5.323  -7.857  1.00 38.24     0.138 C 
HETATM   55  C41 RAP A 108      12.340  -4.464  -8.588  1.00 16.32     0.032 C 
HETATM   56  C42 RAP A 108      12.700  -3.232  -7.770  1.00 14.05     0.003 C 
BRANCH  53  57
HETATM   57  O12 RAP A 108      10.607  -6.236  -5.696  1.00 30.82    -0.352 OA
HETATM   58  C52 RAP A 108      10.667  -6.212  -4.312  1.00 28.14     0.174 C 
ENDBRANCH  53  57
BRANCH  54  59
HETATM   59  O13 RAP A 108      11.081  -6.529  -8.590  1.00 28.84    -0.382 OA
HETATM   60  HO3 RAP A 108      11.631  -6.527  -9.383  1.00 13.32     0.210 HD
ENDBRANCH  54  59
ENDBRANCH  50  51
ENDBRANCH  48  50
ENDBRANCH  41  48
BRANCH  35  61
HETATM   61  O10 RAP A 108       8.519  -4.009  -6.036  1.00 12.16    -0.378 OA
HETATM   62  HO1 RAP A 108       7.609  -4.255  -6.261  1.00 13.32     0.211 HD
ENDBRANCH  35  61
BRANCH  16  63
HETATM   63  O6  RAP A 108      16.479   2.463   0.641  1.00 14.16    -0.358 OA
HETATM   64  HO6 RAP A 108      16.839   2.221   1.499  1.00 13.32     0.213 HD
ENDBRANCH  16  63
BRANCH  34  65
HETATM   65  O9  RAP A 108       7.869  -3.260  -8.823  1.00 23.09    -0.344 OA
HETATM   66  C51 RAP A 108       8.951  -3.025  -9.655  1.00 19.04     0.175 C 
ENDBRANCH  34  65
BRANCH  23  67
HETATM   67  O7  RAP A 108      12.114   4.671  -1.433  1.00 20.17    -0.350 OA
HETATM   68  C50 RAP A 108      12.357   5.749  -2.280  1.00 28.36     0.175 C 
ENDBRANCH  23  67
TORSDOF 9
ENDMDL
MODEL 5
REMARK VINA RESULT:    -6.183      7.990     13.317
REMARK INTER + INTRA:         -10.956
REMARK INTER:                  -9.082
REMARK INTRA:                  -1.874
REMARK UNBOUND:                -2.061
REMARK  9 active torsions:
REMARK  status: ('A' for Active; 'I' for Inactive)
REMARK    1  A    between atoms: O6_12  and  C10_19 
REMARK    2  A    between atoms: O7_14  and  C16_29 
REMARK    3  A    between atoms: O9_18  and  C27_40 
REMARK    4  A    between atoms: O10_20  and  C28_41 
REMARK    5  A    between atoms: O12_24  and  C39_52 
REMARK    6  A    between atoms: O13_26  and  C40_53 
REMARK    7  A    between atoms: C34_47  and  C35_48 
REMARK    8  A    between atoms: C35_48  and  C36_49 
REMARK    9  A    between atoms: C36_49  and  C37_50 
ROOT
HETATM    1  C1  RAP A 108       5.494  -7.434  -7.477  1.00  5.98     0.292 C 
HETATM    2  O1  RAP A 108       5.612  -6.778  -6.222  1.00  9.08    -0.302 OA
HETATM    3  C2  RAP A 108       5.914  -6.765  -8.786  1.00  6.42     0.171 C 
HETATM    4  O2  RAP A 108       5.009  -8.563  -7.496  1.00 14.08    -0.262 OA
HETATM    5  C3  RAP A 108       6.691  -7.730  -9.670  1.00  5.50     0.033 C 
HETATM    6  O3  RAP A 108       4.964  -4.288  -9.159  1.00 10.38    -0.264 OA
HETATM    7  C4  RAP A 108       8.119  -7.971  -9.203  1.00  4.49     0.004 C 
HETATM    8  O4  RAP A 108       7.477  -2.682  -9.659  1.00 10.60    -0.281 OA
HETATM    9  C5  RAP A 108       8.811  -6.625  -9.085  1.00  4.19     0.024 C 
HETATM   10  O5  RAP A 108       7.822  -3.046  -6.537  1.00 10.76    -0.332 OA
HETATM   11  C6  RAP A 108       8.081  -5.731  -8.130  1.00  3.25     0.105 C 
HETATM   12  N7  RAP A 108       6.715  -5.545  -8.646  1.00  8.46    -0.307 N 
HETATM   13  C8  RAP A 108       6.150  -4.338  -8.809  1.00 10.06     0.297 C 
HETATM   14  O8  RAP A 108       7.199 -13.029   0.794  1.00 18.31    -0.293 OA
HETATM   15  C9  RAP A 108       6.869  -3.129  -8.679  1.00 11.13     0.279 C 
HETATM   16  C10 RAP A 108       6.921  -2.340  -7.358  1.00 16.59     0.246 C 
HETATM   17  C11 RAP A 108       5.519  -2.243  -6.628  1.00 10.40     0.059 C 
HETATM   18  O11 RAP A 108       7.974  -8.332  -5.330  1.00  9.49    -0.296 OA
HETATM   19  C12 RAP A 108       5.677  -1.727  -5.179  1.00 12.17     0.008 C 
HETATM   20  C13 RAP A 108       6.764  -2.505  -4.452  1.00 12.80     0.030 C 
HETATM   21  C14 RAP A 108       8.063  -2.619  -5.244  1.00 10.37     0.121 C 
HETATM   22  C15 RAP A 108       8.941  -3.698  -4.634  1.00  5.94     0.064 C 
HETATM   23  C16 RAP A 108       9.553  -3.394  -3.273  1.00  9.79     0.136 C 
HETATM   24  C17 RAP A 108      10.372  -4.562  -2.763  1.00 15.52    -0.017 C 
HETATM   25  C18 RAP A 108       9.948  -5.207  -1.685  1.00 14.38    -0.006 C 
HETATM   26  C19 RAP A 108      10.616  -6.374  -1.090  1.00  9.73    -0.001 C 
HETATM   27  C20 RAP A 108      10.123  -6.901   0.022  1.00 10.26    -0.000 C 
HETATM   28  C21 RAP A 108      10.693  -8.130   0.604  1.00 11.40    -0.005 C 
HETATM   29  C22 RAP A 108      10.093  -8.778   1.585  1.00 17.77    -0.026 C 
HETATM   30  C23 RAP A 108      10.572 -10.099   2.147  1.00 15.64     0.022 C 
HETATM   31  C24 RAP A 108       9.412 -11.071   2.021  1.00 14.68     0.012 C 
HETATM   32  C25 RAP A 108       8.774 -11.218   0.652  1.00 11.87     0.061 C 
HETATM   33  C26 RAP A 108       7.377 -11.814   0.767  1.00 11.65     0.180 C 
HETATM   34  C27 RAP A 108       6.216 -10.828   0.834  1.00  8.13     0.203 C 
HETATM   35  C28 RAP A 108       5.735 -10.334  -0.568  1.00 10.80     0.163 C 
HETATM   36  C29 RAP A 108       6.595  -9.194  -1.149  1.00  9.60    -0.019 C 
HETATM   37  C30 RAP A 108       7.396  -9.353  -2.201  1.00  8.55    -0.025 C 
HETATM   38  C31 RAP A 108       8.278  -8.326  -2.926  1.00  8.43     0.079 C 
HETATM   39  C32 RAP A 108       7.605  -7.904  -4.232  1.00 10.69     0.157 C 
HETATM   40  C33 RAP A 108       6.413  -6.964  -4.088  1.00  6.51     0.095 C 
HETATM   41  C34 RAP A 108       5.268  -7.341  -5.005  1.00  9.62     0.132 C 
HETATM   42  C43 RAP A 108       4.431  -1.426  -7.386  1.00 11.25     0.005 C 
HETATM   43  C44 RAP A 108      11.659  -4.869  -3.549  1.00 14.40     0.029 C 
HETATM   44  C45 RAP A 108      10.997  -9.952   3.601  1.00  9.23     0.005 C 
HETATM   45  C46 RAP A 108       9.646 -12.050  -0.292  1.00 15.99     0.008 C 
HETATM   46  C47 RAP A 108       6.463  -7.876  -0.410  1.00 14.60     0.029 C 
HETATM   47  C48 RAP A 108       9.641  -8.967  -3.229  1.00  9.37     0.013 C 
ENDROOT
BRANCH  41  48
HETATM   48  C35 RAP A 108       3.858  -6.809  -4.679  1.00  9.58     0.028 C 
HETATM   49  C49 RAP A 108       3.853  -5.915  -3.472  1.00  8.29     0.003 C 
BRANCH  48  50
HETATM   50  C36 RAP A 108       2.841  -7.936  -4.512  1.00 10.31     0.003 C 
BRANCH  50  51
HETATM   51  C37 RAP A 108       2.149  -8.063  -3.153  1.00 22.90     0.003 C 
HETATM   52  C38 RAP A 108       0.627  -8.072  -3.337  1.00 14.17     0.032 C 
HETATM   53  C39 RAP A 108      -0.134  -8.079  -2.010  1.00 34.20     0.142 C 
HETATM   54  C40 RAP A 108       0.371  -9.257  -1.108  1.00 38.24     0.138 C 
HETATM   55  C41 RAP A 108       1.903  -9.282  -0.943  1.00 16.32     0.032 C 
HETATM   56  C42 RAP A 108       2.597  -9.248  -2.297  1.00 14.05     0.003 C 
BRANCH  53  57
HETATM   57  O12 RAP A 108      -1.491  -8.253  -2.330  1.00 30.82    -0.352 OA
HETATM   58  C52 RAP A 108      -1.811  -9.348  -3.117  1.00 28.14     0.174 C 
ENDBRANCH  53  57
BRANCH  54  59
HETATM   59  O13 RAP A 108      -0.236  -9.153   0.179  1.00 28.84    -0.382 OA
HETATM   60  HO3 RAP A 108      -1.195  -9.104   0.083  1.00 13.32     0.210 HD
ENDBRANCH  54  59
ENDBRANCH  50  51
ENDBRANCH  48  50
ENDBRANCH  41  48
BRANCH  35  61
HETATM   61  O10 RAP A 108       5.759 -11.460  -1.455  1.00 12.16    -0.378 OA
HETATM   62  HO1 RAP A 108       6.006 -11.199  -2.354  1.00 13.32     0.211 HD
ENDBRANCH  35  61
BRANCH  16  63
HETATM   63  O6  RAP A 108       7.396  -1.018  -7.630  1.00 14.16    -0.358 OA
HETATM   64  HO6 RAP A 108       7.092  -0.442  -6.923  1.00 13.32     0.213 HD
ENDBRANCH  16  63
BRANCH  34  65
HETATM   65  O9  RAP A 108       5.120 -11.465   1.434  1.00 23.09    -0.344 OA
HETATM   66  C51 RAP A 108       4.944 -11.208   2.783  1.00 19.04     0.175 C 
ENDBRANCH  34  65
BRANCH  23  67
HETATM   67  O7  RAP A 108      10.376  -2.279  -3.415  1.00 20.17    -0.350 OA
HETATM   68  C50 RAP A 108      10.223  -1.275  -2.463  1.00 28.36     0.175 C 
ENDBRANCH  23  67
TORSDOF 9
ENDMDL
MODEL 6
REMARK VINA RESULT:    -6.161     10.524     16.731
REMARK INTER + INTRA:         -10.923
REMARK INTER:                  -8.264
REMARK INTRA:                  -2.659
REMARK UNBOUND:                -2.061
REMARK  9 active torsions:
REMARK  status: ('A' for Active; 'I' for Inactive)
REMARK    1  A    between atoms: O6_12  and  C10_19 
REMARK    2  A    between atoms: O7_14  and  C16_29 
REMARK    3  A    between atoms: O9_18  and  C27_40 
REMARK    4  A    between atoms: O10_20  and  C28_41 
REMARK    5  A    between atoms: O12_24  and  C39_52 
REMARK    6  A    between atoms: O13_26  and  C40_53 
REMARK    7  A    between atoms: C34_47  and  C35_48 
REMARK    8  A    between atoms: C35_48  and  C36_49 
REMARK    9  A    between atoms: C36_49  and  C37_50 
ROOT
HETATM    1  C1  RAP A 108       2.712  -8.801  -0.717  1.00  5.98     0.292 C 
HETATM    2  O1  RAP A 108       3.990  -8.845  -1.339  1.00  9.08    -0.302 OA
HETATM    3  C2  RAP A 108       1.426  -9.116  -1.479  1.00  6.42     0.171 C 
HETATM    4  O2  RAP A 108       2.656  -8.468   0.465  1.00 14.08    -0.262 OA
HETATM    5  C3  RAP A 108       0.504 -10.004  -0.657  1.00  5.50     0.033 C 
HETATM    6  O3  RAP A 108       1.147  -7.845  -3.822  1.00 10.38    -0.264 OA
HETATM    7  C4  RAP A 108       0.954 -11.456  -0.589  1.00  4.49     0.004 C 
HETATM    8  O4  RAP A 108       0.690 -10.121  -5.761  1.00 10.60    -0.281 OA
HETATM    9  C5  RAP A 108       1.116 -11.967  -2.010  1.00  4.19     0.024 C 
HETATM   10  O5  RAP A 108       3.796 -10.543  -5.337  1.00 10.76    -0.332 OA
HETATM   11  C6  RAP A 108       2.106 -11.135  -2.766  1.00  3.25     0.105 C 
HETATM   12  N7  RAP A 108       1.605  -9.751  -2.789  1.00  8.46    -0.307 N 
HETATM   13  C8  RAP A 108       1.488  -9.032  -3.916  1.00 10.06     0.297 C 
HETATM   14  O8  RAP A 108      10.769 -11.309   4.888  1.00 18.31    -0.293 OA
HETATM   15  C9  RAP A 108       1.657  -9.587  -5.204  1.00 11.13     0.279 C 
HETATM   16  C10 RAP A 108       3.005  -9.549  -5.946  1.00 16.59     0.246 C 
HETATM   17  C11 RAP A 108       3.746  -8.154  -5.834  1.00 10.40     0.059 C 
HETATM   18  O11 RAP A 108       4.813 -11.399  -0.079  1.00  9.49    -0.296 OA
HETATM   19  C12 RAP A 108       5.211  -8.257  -6.315  1.00 12.17     0.008 C 
HETATM   20  C13 RAP A 108       5.904  -9.445  -5.662  1.00 12.80     0.030 C 
HETATM   21  C14 RAP A 108       5.102 -10.739  -5.747  1.00 10.37     0.121 C 
HETATM   22  C15 RAP A 108       5.667 -11.757  -4.772  1.00  5.94     0.064 C 
HETATM   23  C16 RAP A 108       7.036 -12.338  -5.107  1.00  9.79     0.136 C 
HETATM   24  C17 RAP A 108       7.498 -13.308  -4.041  1.00 15.52    -0.017 C 
HETATM   25  C18 RAP A 108       8.556 -12.984  -3.308  1.00 14.38    -0.006 C 
HETATM   26  C19 RAP A 108       9.105 -13.805  -2.220  1.00  9.73    -0.001 C 
HETATM   27  C20 RAP A 108      10.200 -13.396  -1.593  1.00 10.26    -0.000 C 
HETATM   28  C21 RAP A 108      10.734 -14.129  -0.431  1.00 11.40    -0.005 C 
HETATM   29  C22 RAP A 108      11.695 -13.630   0.324  1.00 17.77    -0.026 C 
HETATM   30  C23 RAP A 108      12.207 -14.283   1.589  1.00 15.64     0.022 C 
HETATM   31  C24 RAP A 108      12.053 -13.260   2.700  1.00 14.68     0.012 C 
HETATM   32  C25 RAP A 108      10.683 -12.632   2.882  1.00 11.87     0.061 C 
HETATM   33  C26 RAP A 108      10.785 -11.327   3.660  1.00 11.65     0.180 C 
HETATM   34  C27 RAP A 108      10.893 -10.047   2.838  1.00  8.13     0.203 C 
HETATM   35  C28 RAP A 108       9.512  -9.491   2.363  1.00 10.80     0.163 C 
HETATM   36  C29 RAP A 108       8.968 -10.188   1.101  1.00  9.60    -0.019 C 
HETATM   37  C30 RAP A 108       7.906 -10.993   1.117  1.00  8.55    -0.025 C 
HETATM   38  C31 RAP A 108       7.214 -11.724  -0.042  1.00  8.43     0.079 C 
HETATM   39  C32 RAP A 108       5.927 -10.988  -0.416  1.00 10.69     0.157 C 
HETATM   40  C33 RAP A 108       6.112  -9.685  -1.186  1.00  6.51     0.095 C 
HETATM   41  C34 RAP A 108       5.188  -8.590  -0.693  1.00  9.62     0.132 C 
HETATM   42  C43 RAP A 108       3.023  -6.960  -6.527  1.00 11.25     0.005 C 
HETATM   43  C44 RAP A 108       6.695 -14.616  -3.932  1.00 14.40     0.029 C 
HETATM   44  C45 RAP A 108      13.663 -14.700   1.438  1.00  9.23     0.005 C 
HETATM   45  C46 RAP A 108       9.705 -13.596   3.559  1.00 15.99     0.008 C 
HETATM   46  C47 RAP A 108       9.754  -9.892  -0.162  1.00 14.60     0.029 C 
HETATM   47  C48 RAP A 108       6.880 -13.157   0.404  1.00  9.37     0.013 C 
ENDROOT
BRANCH  41  48
HETATM   48  C35 RAP A 108       5.541  -7.126  -1.024  1.00  9.58     0.028 C 
HETATM   49  C49 RAP A 108       5.305  -6.207   0.139  1.00  8.29     0.003 C 
BRANCH  48  50
HETATM   50  C36 RAP A 108       4.802  -6.622  -2.262  1.00 10.31     0.003 C 
BRANCH  50  51
HETATM   51  C37 RAP A 108       5.651  -6.199  -3.464  1.00 22.90     0.003 C 
HETATM   52  C38 RAP A 108       5.150  -4.860  -4.017  1.00 14.17     0.032 C 
HETATM   53  C39 RAP A 108       5.877  -4.431  -5.292  1.00 34.20     0.142 C 
HETATM   54  C40 RAP A 108       7.427  -4.442  -5.055  1.00 38.24     0.138 C 
HETATM   55  C41 RAP A 108       7.941  -5.771  -4.465  1.00 16.32     0.032 C 
HETATM   56  C42 RAP A 108       7.158  -6.151  -3.216  1.00 14.05     0.003 C 
BRANCH  53  57
HETATM   57  O12 RAP A 108       5.436  -3.130  -5.584  1.00 30.82    -0.352 OA
HETATM   58  C52 RAP A 108       4.773  -2.951  -6.788  1.00 28.14     0.174 C 
ENDBRANCH  53  57
BRANCH  54  59
HETATM   59  O13 RAP A 108       8.091  -4.193  -6.292  1.00 28.84    -0.382 OA
HETATM   60  HO3 RAP A 108       8.965  -3.819  -6.123  1.00 13.32     0.210 HD
ENDBRANCH  54  59
ENDBRANCH  50  51
ENDBRANCH  48  50
ENDBRANCH  41  48
BRANCH  35  61
HETATM   61  O10 RAP A 108       8.586  -9.653   3.445  1.00 12.16    -0.378 OA
HETATM   62  HO1 RAP A 108       8.576  -8.876   4.024  1.00 13.32     0.211 HD
ENDBRANCH  35  61
BRANCH  16  63
HETATM   63  O6  RAP A 108       2.778  -9.843  -7.328  1.00 14.16    -0.358 OA
HETATM   64  HO6 RAP A 108       2.787  -9.014  -7.815  1.00 13.32     0.213 HD
ENDBRANCH  16  63
BRANCH  34  65
HETATM   65  O9  RAP A 108      11.477  -9.050   3.634  1.00 23.09    -0.344 OA
HETATM   66  C51 RAP A 108      11.611  -7.809   3.035  1.00 19.04     0.175 C 
ENDBRANCH  34  65
BRANCH  23  67
HETATM   67  O7  RAP A 108       6.928 -13.005  -6.325  1.00 20.17    -0.350 OA
HETATM   68  C50 RAP A 108       7.960 -12.797  -7.235  1.00 28.36     0.175 C 
ENDBRANCH  23  67
TORSDOF 9
ENDMDL
MODEL 7
REMARK VINA RESULT:    -6.149     12.328     18.581
REMARK INTER + INTRA:         -10.907
REMARK INTER:                  -8.509
REMARK INTRA:                  -2.398
REMARK UNBOUND:                -2.061
REMARK  9 active torsions:
REMARK  status: ('A' for Active; 'I' for Inactive)
REMARK    1  A    between atoms: O6_12  and  C10_19 
REMARK    2  A    between atoms: O7_14  and  C16_29 
REMARK    3  A    between atoms: O9_18  and  C27_40 
REMARK    4  A    between atoms: O10_20  and  C28_41 
REMARK    5  A    between atoms: O12_24  and  C39_52 
REMARK    6  A    between atoms: O13_26  and  C40_53 
REMARK    7  A    between atoms: C34_47  and  C35_48 
REMARK    8  A    between atoms: C35_48  and  C36_49 
REMARK    9  A    between atoms: C36_49  and  C37_50 
ROOT
HETATM    1  C1  RAP A 108       2.035  -8.283  -2.128  1.00  5.98     0.292 C 
HETATM    2  O1  RAP A 108       2.784  -9.477  -2.310  1.00  9.08    -0.302 OA
HETATM    3  C2  RAP A 108       0.980  -7.825  -3.135  1.00  6.42     0.171 C 
HETATM    4  O2  RAP A 108       2.278  -7.593  -1.140  1.00 14.08    -0.262 OA
HETATM    5  C3  RAP A 108      -0.277  -7.338  -2.428  1.00  5.50     0.033 C 
HETATM    6  O3  RAP A 108       1.771  -7.814  -5.694  1.00 10.38    -0.264 OA
HETATM    7  C4  RAP A 108      -1.136  -8.462  -1.867  1.00  4.49     0.004 C 
HETATM    8  O4  RAP A 108      -0.324  -9.527  -7.044  1.00 10.60    -0.281 OA
HETATM    9  C5  RAP A 108      -1.456  -9.423  -2.998  1.00  4.19     0.024 C 
HETATM   10  O5  RAP A 108       1.277 -11.856  -5.624  1.00 10.76    -0.332 OA
HETATM   11  C6  RAP A 108      -0.200  -9.964  -3.610  1.00  3.25     0.105 C 
HETATM   12  N7  RAP A 108       0.575  -8.825  -4.128  1.00  8.46    -0.307 N 
HETATM   13  C8  RAP A 108       1.051  -8.770  -5.381  1.00 10.06     0.297 C 
HETATM   14  O8  RAP A 108       5.141 -13.372   6.062  1.00 18.31    -0.293 OA
HETATM   15  C9  RAP A 108       0.703  -9.710  -6.377  1.00 11.13     0.279 C 
HETATM   16  C10 RAP A 108       1.558 -10.956  -6.670  1.00 16.59     0.246 C 
HETATM   17  C11 RAP A 108       3.113 -10.659  -6.696  1.00 10.40     0.059 C 
HETATM   18  O11 RAP A 108       1.308 -11.032  -0.263  1.00  9.49    -0.296 OA
HETATM   19  C12 RAP A 108       3.934 -11.968  -6.678  1.00 12.17     0.008 C 
HETATM   20  C13 RAP A 108       3.441 -12.890  -5.571  1.00 12.80     0.030 C 
HETATM   21  C14 RAP A 108       1.927 -13.075  -5.563  1.00 10.37     0.121 C 
HETATM   22  C15 RAP A 108       1.493 -13.683  -4.241  1.00  5.94     0.064 C 
HETATM   23  C16 RAP A 108       1.881 -15.136  -3.996  1.00  9.79     0.136 C 
HETATM   24  C17 RAP A 108       1.421 -15.606  -2.632  1.00 15.52    -0.017 C 
HETATM   25  C18 RAP A 108       2.341 -15.905  -1.724  1.00 14.38    -0.006 C 
HETATM   26  C19 RAP A 108       2.053 -16.345  -0.352  1.00  9.73    -0.001 C 
HETATM   27  C20 RAP A 108       3.061 -16.665   0.448  1.00 10.26    -0.000 C 
HETATM   28  C21 RAP A 108       2.834 -17.016   1.861  1.00 11.40    -0.005 C 
HETATM   29  C22 RAP A 108       3.831 -17.136   2.717  1.00 17.77    -0.026 C 
HETATM   30  C23 RAP A 108       3.654 -17.386   4.199  1.00 15.64     0.022 C 
HETATM   31  C24 RAP A 108       4.377 -16.261   4.919  1.00 14.68     0.012 C 
HETATM   32  C25 RAP A 108       4.022 -14.840   4.521  1.00 11.87     0.061 C 
HETATM   33  C26 RAP A 108       5.120 -13.871   4.940  1.00 11.65     0.180 C 
HETATM   34  C27 RAP A 108       6.180 -13.544   3.893  1.00  8.13     0.203 C 
HETATM   35  C28 RAP A 108       5.753 -12.411   2.905  1.00 10.80     0.163 C 
HETATM   36  C29 RAP A 108       4.852 -12.903   1.756  1.00  9.60    -0.019 C 
HETATM   37  C30 RAP A 108       3.562 -12.582   1.657  1.00  8.55    -0.025 C 
HETATM   38  C31 RAP A 108       2.542 -12.945   0.568  1.00  8.43     0.079 C 
HETATM   39  C32 RAP A 108       2.317 -11.740  -0.345  1.00 10.69     0.157 C 
HETATM   40  C33 RAP A 108       3.443 -11.434  -1.327  1.00  6.51     0.095 C 
HETATM   41  C34 RAP A 108       3.736  -9.951  -1.423  1.00  9.62     0.132 C 
HETATM   42  C43 RAP A 108       3.592  -9.727  -7.850  1.00 11.25     0.005 C 
HETATM   43  C44 RAP A 108      -0.102 -15.723  -2.443  1.00 14.40     0.029 C 
HETATM   44  C45 RAP A 108       4.227 -18.738   4.598  1.00  9.23     0.005 C 
HETATM   45  C46 RAP A 108       2.669 -14.413   5.096  1.00 15.99     0.008 C 
HETATM   46  C47 RAP A 108       5.553 -13.798   0.752  1.00 14.60     0.029 C 
HETATM   47  C48 RAP A 108       1.218 -13.342   1.240  1.00  9.37     0.013 C 
ENDROOT
BRANCH  41  48
HETATM   48  C35 RAP A 108       5.099  -9.507  -1.991  1.00  9.58     0.028 C 
HETATM   49  C49 RAP A 108       5.175  -9.673  -3.482  1.00  8.29     0.003 C 
BRANCH  48  50
HETATM   50  C36 RAP A 108       6.266 -10.221  -1.313  1.00 10.31     0.003 C 
BRANCH  50  51
HETATM   51  C37 RAP A 108       6.757  -9.653   0.021  1.00 22.90     0.003 C 
HETATM   52  C38 RAP A 108       7.899 -10.516   0.571  1.00 14.17     0.032 C 
HETATM   53  C39 RAP A 108       8.363 -10.076   1.961  1.00 34.20     0.142 C 
HETATM   54  C40 RAP A 108       8.714  -8.548   1.950  1.00 38.24     0.138 C 
HETATM   55  C41 RAP A 108       7.589  -7.670   1.366  1.00 16.32     0.032 C 
HETATM   56  C42 RAP A 108       7.158  -8.178  -0.002  1.00 14.05     0.003 C 
BRANCH  53  57
HETATM   57  O12 RAP A 108       9.505 -10.838   2.260  1.00 30.82    -0.352 OA
HETATM   58  C52 RAP A 108       9.833 -11.847   1.367  1.00 28.14     0.174 C 
ENDBRANCH  53  57
BRANCH  54  59
HETATM   59  O13 RAP A 108       8.993  -8.123   3.283  1.00 28.84    -0.382 OA
HETATM   60  HO3 RAP A 108       9.935  -7.932   3.373  1.00 13.32     0.210 HD
ENDBRANCH  54  59
ENDBRANCH  50  51
ENDBRANCH  48  50
ENDBRANCH  41  48
BRANCH  35  61
HETATM   61  O10 RAP A 108       5.067 -11.410   3.667  1.00 12.16    -0.378 OA
HETATM   62  HO1 RAP A 108       5.674 -10.923   4.243  1.00 13.32     0.211 HD
ENDBRANCH  35  61
BRANCH  16  63
HETATM   63  O6  RAP A 108       1.167 -11.495  -7.936  1.00 14.16    -0.358 OA
HETATM   64  HO6 RAP A 108       1.562 -12.367  -8.023  1.00 13.32     0.213 HD
ENDBRANCH  16  63
BRANCH  34  65
HETATM   65  O9  RAP A 108       7.334 -13.092   4.549  1.00 23.09    -0.344 OA
HETATM   66  C51 RAP A 108       8.466 -13.871   4.373  1.00 19.04     0.175 C 
ENDBRANCH  34  65
BRANCH  23  67
HETATM   67  O7  RAP A 108       1.273 -15.911  -4.982  1.00 20.17    -0.350 OA
HETATM   68  C50 RAP A 108       2.067 -16.891  -5.571  1.00 28.36     0.175 C 
ENDBRANCH  23  67
TORSDOF 9
ENDMDL
MODEL 8
REMARK VINA RESULT:    -5.977      8.159     13.292
REMARK INTER + INTRA:         -10.660
REMARK INTER:                  -8.126
REMARK INTRA:                  -2.534
REMARK UNBOUND:                -2.061
REMARK  9 active torsions:
REMARK  status: ('A' for Active; 'I' for Inactive)
REMARK    1  A    between atoms: O6_12  and  C10_19 
REMARK    2  A    between atoms: O7_14  and  C16_29 
REMARK    3  A    between atoms: O9_18  and  C27_40 
REMARK    4  A    between atoms: O10_20  and  C28_41 
REMARK    5  A    between atoms: O12_24  and  C39_52 
REMARK    6  A    between atoms: O13_26  and  C40_53 
REMARK    7  A    between atoms: C34_47  and  C35_48 
REMARK    8  A    between atoms: C35_48  and  C36_49 
REMARK    9  A    between atoms: C36_49  and  C37_50 
ROOT
HETATM    1  C1  RAP A 108       0.403 -10.119  -4.447  1.00  5.98     0.292 C 
HETATM    2  O1  RAP A 108       1.814 -10.260  -4.345  1.00  9.08    -0.302 OA
HETATM    3  C2  RAP A 108      -0.543 -10.606  -3.351  1.00  6.42     0.171 C 
HETATM    4  O2  RAP A 108      -0.055  -9.614  -5.470  1.00 14.08    -0.262 OA
HETATM    5  C3  RAP A 108      -1.632  -9.580  -3.070  1.00  5.50     0.033 C 
HETATM    6  O3  RAP A 108      -0.115 -13.110  -2.501  1.00 10.38    -0.264 OA
HETATM    7  C4  RAP A 108      -1.146  -8.377  -2.274  1.00  4.49     0.004 C 
HETATM    8  O4  RAP A 108       0.217 -12.750   0.484  1.00 10.60    -0.281 OA
HETATM    9  C5  RAP A 108      -0.500  -8.884  -0.998  1.00  4.19     0.024 C 
HETATM   10  O5  RAP A 108       3.033 -11.610  -0.395  1.00 10.76    -0.332 OA
HETATM   11  C6  RAP A 108       0.633  -9.813  -1.305  1.00  3.25     0.105 C 
HETATM   12  N7  RAP A 108       0.089 -10.946  -2.072  1.00  8.46    -0.307 N 
HETATM   13  C8  RAP A 108       0.305 -12.228  -1.740  1.00 10.06     0.297 C 
HETATM   14  O8  RAP A 108       6.318  -3.205  -8.900  1.00 18.31    -0.293 OA
HETATM   15  C9  RAP A 108       0.917 -12.616  -0.527  1.00 11.13     0.279 C 
HETATM   16  C10 RAP A 108       2.429 -12.883  -0.416  1.00 16.59     0.246 C 
HETATM   17  C11 RAP A 108       3.012 -13.715  -1.631  1.00 10.40     0.059 C 
HETATM   18  O11 RAP A 108       2.325  -7.402  -3.743  1.00  9.49    -0.296 OA
HETATM   19  C12 RAP A 108       4.558 -13.688  -1.638  1.00 12.17     0.008 C 
HETATM   20  C13 RAP A 108       5.066 -12.260  -1.492  1.00 12.80     0.030 C 
HETATM   21  C14 RAP A 108       4.410 -11.496  -0.346  1.00 10.37     0.121 C 
HETATM   22  C15 RAP A 108       4.683 -10.010  -0.499  1.00  5.94     0.064 C 
HETATM   23  C16 RAP A 108       6.117  -9.550  -0.263  1.00  9.79     0.136 C 
HETATM   24  C17 RAP A 108       6.260  -8.059  -0.483  1.00 15.52    -0.017 C 
HETATM   25  C18 RAP A 108       7.000  -7.639  -1.501  1.00 14.38    -0.006 C 
HETATM   26  C19 RAP A 108       7.210  -6.229  -1.859  1.00  9.73    -0.001 C 
HETATM   27  C20 RAP A 108       8.015  -5.934  -2.870  1.00 10.26    -0.000 C 
HETATM   28  C21 RAP A 108       8.182  -4.545  -3.334  1.00 11.40    -0.005 C 
HETATM   29  C22 RAP A 108       8.814  -4.258  -4.457  1.00 17.77    -0.026 C 
HETATM   30  C23 RAP A 108       8.921  -2.865  -5.039  1.00 15.64     0.022 C 
HETATM   31  C24 RAP A 108       8.355  -2.937  -6.447  1.00 14.68     0.012 C 
HETATM   32  C25 RAP A 108       6.967  -3.530  -6.608  1.00 11.87     0.061 C 
HETATM   33  C26 RAP A 108       6.735  -3.981  -8.044  1.00 11.65     0.180 C 
HETATM   34  C27 RAP A 108       7.033  -5.443  -8.359  1.00  8.13     0.203 C 
HETATM   35  C28 RAP A 108       5.853  -6.408  -8.015  1.00 10.80     0.163 C 
HETATM   36  C29 RAP A 108       5.791  -6.801  -6.527  1.00  9.60    -0.019 C 
HETATM   37  C30 RAP A 108       4.830  -6.382  -5.705  1.00  8.55    -0.025 C 
HETATM   38  C31 RAP A 108       4.596  -6.708  -4.223  1.00  8.43     0.079 C 
HETATM   39  C32 RAP A 108       3.463  -7.726  -4.095  1.00 10.69     0.157 C 
HETATM   40  C33 RAP A 108       3.814  -9.158  -4.483  1.00  6.51     0.095 C 
HETATM   41  C34 RAP A 108       2.719  -9.819  -5.296  1.00  9.62     0.132 C 
HETATM   42  C43 RAP A 108       2.488 -15.178  -1.745  1.00 11.25     0.005 C 
HETATM   43  C44 RAP A 108       5.542  -7.160   0.539  1.00 14.40     0.029 C 
HETATM   44  C45 RAP A 108      10.368  -2.393  -5.064  1.00  9.23     0.005 C 
HETATM   45  C46 RAP A 108       5.879  -2.551  -6.160  1.00 15.99     0.008 C 
HETATM   46  C47 RAP A 108       6.928  -7.695  -6.070  1.00 14.60     0.029 C 
HETATM   47  C48 RAP A 108       4.218  -5.416  -3.483  1.00  9.37     0.013 C 
ENDROOT
BRANCH  41  48
HETATM   48  C35 RAP A 108       3.077 -11.058  -6.141  1.00  9.58     0.028 C 
HETATM   49  C49 RAP A 108       4.329 -11.734  -5.659  1.00  8.29     0.003 C 
BRANCH  48  50
HETATM   50  C36 RAP A 108       3.187 -10.727  -7.628  1.00 10.31     0.003 C 
BRANCH  50  51
HETATM   51  C37 RAP A 108       2.156  -9.757  -8.210  1.00 22.90     0.003 C 
HETATM   52  C38 RAP A 108       2.862  -8.660  -9.015  1.00 14.17     0.032 C 
HETATM   53  C39 RAP A 108       1.902  -7.586  -9.530  1.00 34.20     0.142 C 
HETATM   54  C40 RAP A 108       0.727  -8.254 -10.324  1.00 38.24     0.138 C 
HETATM   55  C41 RAP A 108       0.030  -9.384  -9.540  1.00 16.32     0.032 C 
HETATM   56  C42 RAP A 108       1.043 -10.401  -9.036  1.00 14.05     0.003 C 
BRANCH  53  57
HETATM   57  O12 RAP A 108       2.653  -6.753 -10.376  1.00 30.82    -0.352 OA
HETATM   58  C52 RAP A 108       3.383  -7.374 -11.377  1.00 28.14     0.174 C 
ENDBRANCH  53  57
BRANCH  54  59
HETATM   59  O13 RAP A 108      -0.236  -7.257 -10.660  1.00 28.84    -0.382 OA
HETATM   60  HO3 RAP A 108      -0.619  -6.890  -9.854  1.00 13.32     0.210 HD
ENDBRANCH  54  59
ENDBRANCH  50  51
ENDBRANCH  48  50
ENDBRANCH  41  48
BRANCH  35  61
HETATM   61  O10 RAP A 108       4.635  -5.755  -8.397  1.00 12.16    -0.378 OA
HETATM   62  HO1 RAP A 108       4.361  -5.102  -7.737  1.00 13.32     0.211 HD
ENDBRANCH  35  61
BRANCH  16  63
HETATM   63  O6  RAP A 108       2.682 -13.595   0.798  1.00 14.16    -0.358 OA
HETATM   64  HO6 RAP A 108       1.978 -14.238   0.919  1.00 13.32     0.213 HD
ENDBRANCH  16  63
BRANCH  34  65
HETATM   65  O9  RAP A 108       7.266  -5.566  -9.737  1.00 23.09    -0.344 OA
HETATM   66  C51 RAP A 108       7.500  -6.854 -10.191  1.00 19.04     0.175 C 
ENDBRANCH  34  65
BRANCH  23  67
HETATM   67  O7  RAP A 108       6.451  -9.859   1.054  1.00 20.17    -0.350 OA
HETATM   68  C50 RAP A 108       7.790 -10.152   1.297  1.00 28.36     0.175 C 
ENDBRANCH  23  67
TORSDOF 9
ENDMDL
MODEL 9
REMARK VINA RESULT:    -5.879      5.158      9.912
REMARK INTER + INTRA:         -10.518
REMARK INTER:                  -8.427
REMARK INTRA:                  -2.091
REMARK UNBOUND:                -2.061
REMARK  9 active torsions:
REMARK  status: ('A' for Active; 'I' for Inactive)
REMARK    1  A    between atoms: O6_12  and  C10_19 
REMARK    2  A    between atoms: O7_14  and  C16_29 
REMARK    3  A    between atoms: O9_18  and  C27_40 
REMARK    4  A    between atoms: O10_20  and  C28_41 
REMARK    5  A    between atoms: O12_24  and  C39_52 
REMARK    6  A    between atoms: O13_26  and  C40_53 
REMARK    7  A    between atoms: C34_47  and  C35_48 
REMARK    8  A    between atoms: C35_48  and  C36_49 
REMARK    9  A    between atoms: C36_49  and  C37_50 
ROOT
HETATM    1  C1  RAP A 108       8.589  -7.616  -7.113  1.00  5.98     0.292 C 
HETATM    2  O1  RAP A 108       7.413  -6.896  -6.768  1.00  9.08    -0.302 OA
HETATM    3  C2  RAP A 108       8.562  -8.805  -8.073  1.00  6.42     0.171 C 
HETATM    4  O2  RAP A 108       9.649  -7.277  -6.590  1.00 14.08    -0.262 OA
HETATM    5  C3  RAP A 108       9.717  -8.738  -9.062  1.00  5.50     0.033 C 
HETATM    6  O3  RAP A 108       6.697 -10.655  -7.548  1.00 10.38    -0.264 OA
HETATM    7  C4  RAP A 108       9.521  -7.701 -10.159  1.00  4.49     0.004 C 
HETATM    8  O4  RAP A 108       5.197 -10.846 -10.167  1.00 10.60    -0.281 OA
HETATM    9  C5  RAP A 108       8.199  -7.985 -10.848  1.00  4.19     0.024 C 
HETATM   10  O5  RAP A 108       4.009  -8.079  -9.201  1.00 10.76    -0.332 OA
HETATM   11  C6  RAP A 108       7.067  -7.946  -9.868  1.00  3.25     0.105 C 
HETATM   12  N7  RAP A 108       7.325  -8.970  -8.842  1.00  8.46    -0.307 N 
HETATM   13  C8  RAP A 108       6.421  -9.896  -8.486  1.00 10.06     0.297 C 
HETATM   14  O8  RAP A 108       9.384   2.241  -4.914  1.00 18.31    -0.293 OA
HETATM   15  C9  RAP A 108       5.209 -10.095  -9.184  1.00 11.13     0.279 C 
HETATM   16  C10 RAP A 108       3.895  -9.413  -8.763  1.00 16.59     0.246 C 
HETATM   17  C11 RAP A 108       3.652  -9.428  -7.198  1.00 10.40     0.059 C 
HETATM   18  O11 RAP A 108       8.044  -4.534  -8.444  1.00  9.49    -0.296 OA
HETATM   19  C12 RAP A 108       2.502  -8.474  -6.800  1.00 12.17     0.008 C 
HETATM   20  C13 RAP A 108       2.700  -7.107  -7.441  1.00 12.80     0.030 C 
HETATM   21  C14 RAP A 108       2.999  -7.173  -8.935  1.00 10.37     0.121 C 
HETATM   22  C15 RAP A 108       3.542  -5.836  -9.408  1.00  5.94     0.064 C 
HETATM   23  C16 RAP A 108       2.558  -4.672  -9.444  1.00  9.79     0.136 C 
HETATM   24  C17 RAP A 108       3.232  -3.394  -9.896  1.00 15.52    -0.017 C 
HETATM   25  C18 RAP A 108       3.348  -2.399  -9.026  1.00 14.38    -0.006 C 
HETATM   26  C19 RAP A 108       4.001  -1.113  -9.306  1.00  9.73    -0.001 C 
HETATM   27  C20 RAP A 108       4.007  -0.175  -8.369  1.00 10.26    -0.000 C 
HETATM   28  C21 RAP A 108       4.733   1.094  -8.561  1.00 11.40    -0.005 C 
HETATM   29  C22 RAP A 108       4.919   1.945  -7.569  1.00 17.77    -0.026 C 
HETATM   30  C23 RAP A 108       5.748   3.206  -7.678  1.00 15.64     0.022 C 
HETATM   31  C24 RAP A 108       6.809   3.125  -6.594  1.00 14.68     0.012 C 
HETATM   32  C25 RAP A 108       7.661   1.870  -6.550  1.00 11.87     0.061 C 
HETATM   33  C26 RAP A 108       8.312   1.706  -5.183  1.00 11.65     0.180 C 
HETATM   34  C27 RAP A 108       7.571   0.836  -4.172  1.00  8.13     0.203 C 
HETATM   35  C28 RAP A 108       7.859  -0.691  -4.335  1.00 10.80     0.163 C 
HETATM   36  C29 RAP A 108       7.021  -1.362  -5.441  1.00  9.60    -0.019 C 
HETATM   37  C30 RAP A 108       7.548  -1.804  -6.582  1.00  8.55    -0.025 C 
HETATM   38  C31 RAP A 108       6.873  -2.527  -7.758  1.00  8.43     0.079 C 
HETATM   39  C32 RAP A 108       7.204  -4.018  -7.700  1.00 10.69     0.157 C 
HETATM   40  C33 RAP A 108       6.472  -4.816  -6.627  1.00  6.51     0.095 C 
HETATM   41  C34 RAP A 108       7.381  -5.801  -5.921  1.00  9.62     0.132 C 
HETATM   42  C43 RAP A 108       3.435 -10.838  -6.573  1.00 11.25     0.005 C 
HETATM   43  C44 RAP A 108       3.700  -3.367 -11.362  1.00 14.40     0.029 C 
HETATM   44  C45 RAP A 108       4.883   4.445  -7.494  1.00  9.23     0.005 C 
HETATM   45  C46 RAP A 108       8.716   1.864  -7.660  1.00 15.99     0.008 C 
HETATM   46  C47 RAP A 108       5.541  -1.464  -5.127  1.00 14.60     0.029 C 
HETATM   47  C48 RAP A 108       7.397  -1.930  -9.073  1.00  9.37     0.013 C 
ENDROOT
BRANCH  41  48
HETATM   48  C35 RAP A 108       6.948  -6.345  -4.545  1.00  9.58     0.028 C 
HETATM   49  C49 RAP A 108       8.105  -6.480  -3.597  1.00  8.29     0.003 C 
BRANCH  48  50
HETATM   50  C36 RAP A 108       6.195  -7.669  -4.661  1.00 10.31     0.003 C 
BRANCH  50  51
HETATM   51  C37 RAP A 108       4.829  -7.762  -3.977  1.00 22.90     0.003 C 
HETATM   52  C38 RAP A 108       4.995  -8.272  -2.540  1.00 14.17     0.032 C 
HETATM   53  C39 RAP A 108       3.659  -8.502  -1.831  1.00 34.20     0.142 C 
HETATM   54  C40 RAP A 108       2.779  -7.208  -1.913  1.00 38.24     0.138 C 
HETATM   55  C41 RAP A 108       2.632  -6.663  -3.348  1.00 16.32     0.032 C 
HETATM   56  C42 RAP A 108       3.994  -6.482  -4.002  1.00 14.05     0.003 C 
BRANCH  53  57
HETATM   57  O12 RAP A 108       3.965  -8.803  -0.493  1.00 30.82    -0.352 OA
HETATM   58  C52 RAP A 108       4.701  -7.859   0.206  1.00 28.14     0.174 C 
ENDBRANCH  53  57
BRANCH  54  59
HETATM   59  O13 RAP A 108       1.483  -7.490  -1.387  1.00 28.84    -0.382 OA
HETATM   60  HO3 RAP A 108       0.892  -6.748  -1.564  1.00 13.32     0.210 HD
ENDBRANCH  54  59
ENDBRANCH  50  51
ENDBRANCH  48  50
ENDBRANCH  41  48
BRANCH  35  61
HETATM   61  O10 RAP A 108       9.255  -0.839  -4.624  1.00 12.16    -0.378 OA
HETATM   62  HO1 RAP A 108       9.422  -1.614  -5.182  1.00 13.32     0.211 HD
ENDBRANCH  35  61
BRANCH  16  63
HETATM   63  O6  RAP A 108       2.804 -10.078  -9.408  1.00 14.16    -0.358 OA
HETATM   64  HO6 RAP A 108       2.911  -9.974 -10.357  1.00 13.32     0.213 HD
ENDBRANCH  16  63
BRANCH  34  65
HETATM   65  O9  RAP A 108       7.991   1.190  -2.882  1.00 23.09    -0.344 OA
HETATM   66  C51 RAP A 108       8.189   0.135  -2.007  1.00 19.04     0.175 C 
ENDBRANCH  34  65
BRANCH  23  67
HETATM   67  O7  RAP A 108       1.542  -5.002 -10.338  1.00 20.17    -0.350 OA
HETATM   68  C50 RAP A 108       0.463  -4.124 -10.394  1.00 28.36     0.175 C 
ENDBRANCH  23  67
TORSDOF 9
ENDMDL
