MODEL 1
REMARK VINA RESULT:   -10.811      0.000      0.000
REMARK INTER + INTRA:         -17.879
REMARK INTER:                 -15.551
REMARK INTRA:                  -2.328
REMARK UNBOUND:                -2.328
REMARK  9 active torsions:
REMARK  status: ('A' for Active; 'I' for Inactive)
REMARK    1  A    between atoms: O6_12  and  C10_19 
REMARK    2  A    between atoms: O7_14  and  C16_29 
REMARK    3  A    between atoms: O9_18  and  C27_40 
REMARK    4  A    between atoms: O10_20  and  C28_41 
REMARK    5  A    between atoms: O12_24  and  C39_52 
REMARK    6  A    between atoms: O13_26  and  C40_53 
REMARK    7  A    between atoms: C34_47  and  C35_48 
REMARK    8  A    between atoms: C35_48  and  C36_49 
REMARK    9  A    between atoms: C36_49  and  C37_50 
ROOT
HETATM    1  C1  RAP A 108       4.730   8.418  12.897  1.00  5.98     0.292 C 
HETATM    2  O1  RAP A 108       4.397   9.508  13.746  1.00  9.08    -0.302 OA
HETATM    3  C2  RAP A 108       4.247   6.995  13.175  1.00  6.42     0.171 C 
HETATM    4  O2  RAP A 108       5.454   8.640  11.928  1.00 14.08    -0.262 OA
HETATM    5  C3  RAP A 108       3.756   6.323  11.901  1.00  5.50     0.033 C 
HETATM    6  O3  RAP A 108       4.642   6.123  15.677  1.00 10.38    -0.264 OA
HETATM    7  C4  RAP A 108       2.393   6.816  11.437  1.00  4.49     0.004 C 
HETATM    8  O4  RAP A 108       1.867   5.275  16.530  1.00 10.60    -0.281 OA
HETATM    9  C5  RAP A 108       1.413   6.645  12.583  1.00  4.19     0.024 C 
HETATM   10  O5  RAP A 108       1.434   8.401  16.730  1.00 10.76    -0.332 OA
HETATM   11  C6  RAP A 108       1.870   7.399  13.794  1.00  3.25     0.105 C 
HETATM   12  N7  RAP A 108       3.188   6.869  14.182  1.00  8.46    -0.307 N 
HETATM   13  C8  RAP A 108       3.479   6.464  15.427  1.00 10.06     0.297 C 
HETATM   14  O8  RAP A 108       3.842  17.656   8.836  1.00 18.31    -0.293 OA
HETATM   15  C9  RAP A 108       2.503   6.333  16.440  1.00 11.13     0.279 C 
HETATM   16  C10 RAP A 108       2.201   7.460  17.444  1.00 16.59     0.246 C 
HETATM   17  C11 RAP A 108       3.502   8.167  18.006  1.00 10.40     0.059 C 
HETATM   18  O11 RAP A 108       2.393  10.681  11.903  1.00  9.49    -0.296 OA
HETATM   19  C12 RAP A 108       3.151   9.475  18.751  1.00 12.17     0.008 C 
HETATM   20  C13 RAP A 108       2.224  10.337  17.906  1.00 12.80     0.030 C 
HETATM   21  C14 RAP A 108       1.030   9.574  17.341  1.00 10.37     0.121 C 
HETATM   22  C15 RAP A 108       0.382  10.386  16.234  1.00  5.94     0.064 C 
HETATM   23  C16 RAP A 108      -0.360  11.649  16.656  1.00  9.79     0.136 C 
HETATM   24  C17 RAP A 108      -0.926  12.382  15.459  1.00 15.52    -0.017 C 
HETATM   25  C18 RAP A 108      -0.432  13.576  15.157  1.00 14.38    -0.006 C 
HETATM   26  C19 RAP A 108      -0.857  14.394  14.013  1.00  9.73    -0.001 C 
HETATM   27  C20 RAP A 108      -0.323  15.596  13.846  1.00 10.26    -0.000 C 
HETATM   28  C21 RAP A 108      -0.638  16.415  12.662  1.00 11.40    -0.005 C 
HETATM   29  C22 RAP A 108       0.034  17.516  12.379  1.00 17.77    -0.026 C 
HETATM   30  C23 RAP A 108      -0.170  18.336  11.124  1.00 15.64     0.022 C 
HETATM   31  C24 RAP A 108       1.182  18.427  10.439  1.00 14.68     0.012 C 
HETATM   32  C25 RAP A 108       1.914  17.125  10.171  1.00 11.87     0.061 C 
HETATM   33  C26 RAP A 108       3.399  17.375   9.947  1.00 11.65     0.180 C 
HETATM   34  C27 RAP A 108       4.307  17.247  11.166  1.00  8.13     0.203 C 
HETATM   35  C28 RAP A 108       4.745  15.777  11.466  1.00 10.80     0.163 C 
HETATM   36  C29 RAP A 108       3.688  14.964  12.238  1.00  9.60    -0.019 C 
HETATM   37  C30 RAP A 108       3.003  13.960  11.691  1.00  8.55    -0.025 C 
HETATM   38  C31 RAP A 108       1.958  13.028  12.322  1.00  8.43     0.079 C 
HETATM   39  C32 RAP A 108       2.594  11.669  12.616  1.00 10.69     0.157 C 
HETATM   40  C33 RAP A 108       3.537  11.626  13.813  1.00  6.51     0.095 C 
HETATM   41  C34 RAP A 108       4.788  10.819  13.533  1.00  9.62     0.132 C 
HETATM   42  C43 RAP A 108       4.422   7.266  18.881  1.00 11.25     0.005 C 
HETATM   43  C44 RAP A 108      -2.066  11.665  14.713  1.00 14.40     0.029 C 
HETATM   44  C45 RAP A 108      -0.700  19.723  11.458  1.00  9.23     0.005 C 
HETATM   45  C46 RAP A 108       1.304  16.367   8.989  1.00 15.99     0.008 C 
HETATM   46  C47 RAP A 108       3.480  15.413  13.672  1.00 14.60     0.029 C 
HETATM   47  C48 RAP A 108       0.792  12.852  11.337  1.00  9.37     0.013 C 
ENDROOT
BRANCH  41  48
HETATM   48  C35 RAP A 108       6.022  11.041  14.429  1.00  9.58     0.028 C 
HETATM   49  C49 RAP A 108       5.661  11.125  15.884  1.00  8.29     0.003 C 
BRANCH  48  50
HETATM   50  C36 RAP A 108       6.827  12.269  14.006  1.00 10.31     0.003 C 
BRANCH  50  51
HETATM   51  C37 RAP A 108       7.438  12.260  12.603  1.00 22.90     0.003 C 
HETATM   52  C38 RAP A 108       7.753  13.692  12.157  1.00 14.17     0.032 C 
HETATM   53  C39 RAP A 108       8.259  13.771  10.716  1.00 34.20     0.142 C 
HETATM   54  C40 RAP A 108       9.472  12.798  10.519  1.00 38.24     0.138 C 
HETATM   55  C41 RAP A 108       9.182  11.361  10.996  1.00 16.32     0.032 C 
HETATM   56  C42 RAP A 108       8.659  11.358  12.426  1.00 14.05     0.003 C 
BRANCH  53  57
HETATM   57  O12 RAP A 108       8.659  15.101  10.506  1.00 30.82    -0.352 OA
HETATM   58  C52 RAP A 108       9.627  15.604  11.360  1.00 28.14     0.174 C 
ENDBRANCH  53  57
BRANCH  54  59
HETATM   59  O13 RAP A 108       9.829  12.768   9.139  1.00 28.84    -0.382 OA
HETATM   60  HO3 RAP A 108      10.034  11.862   8.875  1.00 13.32     0.210 HD
ENDBRANCH  54  59
ENDBRANCH  50  51
ENDBRANCH  48  50
ENDBRANCH  41  48
BRANCH  35  61
HETATM   61  O10 RAP A 108       5.023  15.145  10.210  1.00 12.16    -0.378 OA
HETATM   62  HO1 RAP A 108       4.455  15.489   9.505  1.00 13.32     0.211 HD
ENDBRANCH  35  61
BRANCH  16  63
HETATM   63  O6  RAP A 108       1.461   6.914  18.540  1.00 14.16    -0.358 OA
HETATM   64  HO6 RAP A 108       1.668   7.428  19.326  1.00 13.32     0.213 HD
ENDBRANCH  16  63
BRANCH  34  65
HETATM   65  O9  RAP A 108       5.481  17.977  10.931  1.00 23.09    -0.344 OA
HETATM   66  C51 RAP A 108       6.465  17.855  11.898  1.00 19.04     0.175 C 
ENDBRANCH  34  65
BRANCH  23  67
HETATM   67  O7  RAP A 108      -1.400  11.269  17.502  1.00 20.17    -0.350 OA
HETATM   68  C50 RAP A 108      -1.557  12.021  18.662  1.00 28.36     0.175 C 
ENDBRANCH  23  67
TORSDOF 9
ENDMDL
MODEL 2
REMARK VINA RESULT:   -10.565      1.259      1.487
REMARK INTER + INTRA:         -17.526
REMARK INTER:                 -15.724
REMARK INTRA:                  -1.802
REMARK UNBOUND:                -2.328
REMARK  9 active torsions:
REMARK  status: ('A' for Active; 'I' for Inactive)
REMARK    1  A    between atoms: O6_12  and  C10_19 
REMARK    2  A    between atoms: O7_14  and  C16_29 
REMARK    3  A    between atoms: O9_18  and  C27_40 
REMARK    4  A    between atoms: O10_20  and  C28_41 
REMARK    5  A    between atoms: O12_24  and  C39_52 
REMARK    6  A    between atoms: O13_26  and  C40_53 
REMARK    7  A    between atoms: C34_47  and  C35_48 
REMARK    8  A    between atoms: C35_48  and  C36_49 
REMARK    9  A    between atoms: C36_49  and  C37_50 
ROOT
HETATM    1  C1  RAP A 108       4.756   8.456  12.925  1.00  5.98     0.292 C 
HETATM    2  O1  RAP A 108       4.401   9.543  13.770  1.00  9.08    -0.302 OA
HETATM    3  C2  RAP A 108       4.294   7.026  13.204  1.00  6.42     0.171 C 
HETATM    4  O2  RAP A 108       5.481   8.687  11.960  1.00 14.08    -0.262 OA
HETATM    5  C3  RAP A 108       3.821   6.343  11.929  1.00  5.50     0.033 C 
HETATM    6  O3  RAP A 108       4.689   6.167  15.711  1.00 10.38    -0.264 OA
HETATM    7  C4  RAP A 108       2.453   6.813  11.456  1.00  4.49     0.004 C 
HETATM    8  O4  RAP A 108       1.923   5.276  16.550  1.00 10.60    -0.281 OA
HETATM    9  C5  RAP A 108       1.469   6.629  12.598  1.00  4.19     0.024 C 
HETATM   10  O5  RAP A 108       1.439   8.396  16.740  1.00 10.76    -0.332 OA
HETATM   11  C6  RAP A 108       1.908   7.394  13.809  1.00  3.25     0.105 C 
HETATM   12  N7  RAP A 108       3.232   6.886  14.205  1.00  8.46    -0.307 N 
HETATM   13  C8  RAP A 108       3.522   6.488  15.453  1.00 10.06     0.297 C 
HETATM   14  O8  RAP A 108       3.744  17.669   8.836  1.00 18.31    -0.293 OA
HETATM   15  C9  RAP A 108       2.542   6.344  16.461  1.00 11.13     0.279 C 
HETATM   16  C10 RAP A 108       2.217   7.469  17.461  1.00 16.59     0.246 C 
HETATM   17  C11 RAP A 108       3.503   8.198  18.027  1.00 10.40     0.059 C 
HETATM   18  O11 RAP A 108       2.389  10.679  11.912  1.00  9.49    -0.296 OA
HETATM   19  C12 RAP A 108       3.127   9.502  18.768  1.00 12.17     0.008 C 
HETATM   20  C13 RAP A 108       2.191  10.347  17.915  1.00 12.80     0.030 C 
HETATM   21  C14 RAP A 108       1.013   9.564  17.345  1.00 10.37     0.121 C 
HETATM   22  C15 RAP A 108       0.358  10.363  16.233  1.00  5.94     0.064 C 
HETATM   23  C16 RAP A 108      -0.406  11.614  16.647  1.00  9.79     0.136 C 
HETATM   24  C17 RAP A 108      -0.977  12.335  15.445  1.00 15.52    -0.017 C 
HETATM   25  C18 RAP A 108      -0.501  13.536  15.143  1.00 14.38    -0.006 C 
HETATM   26  C19 RAP A 108      -0.932  14.344  13.994  1.00  9.73    -0.001 C 
HETATM   27  C20 RAP A 108      -0.416  15.554  13.827  1.00 10.26    -0.000 C 
HETATM   28  C21 RAP A 108      -0.738  16.366  12.639  1.00 11.40    -0.005 C 
HETATM   29  C22 RAP A 108      -0.082  17.476  12.357  1.00 17.77    -0.026 C 
HETATM   30  C23 RAP A 108      -0.292  18.290  11.099  1.00 15.64     0.022 C 
HETATM   31  C24 RAP A 108       1.062  18.400  10.421  1.00 14.68     0.012 C 
HETATM   32  C25 RAP A 108       1.817  17.110  10.161  1.00 11.87     0.061 C 
HETATM   33  C26 RAP A 108       3.299  17.383   9.945  1.00 11.65     0.180 C 
HETATM   34  C27 RAP A 108       4.202  17.272  11.169  1.00  8.13     0.203 C 
HETATM   35  C28 RAP A 108       4.661  15.811  11.475  1.00 10.80     0.163 C 
HETATM   36  C29 RAP A 108       3.613  14.982  12.243  1.00  9.60    -0.019 C 
HETATM   37  C30 RAP A 108       2.948  13.966  11.695  1.00  8.55    -0.025 C 
HETATM   38  C31 RAP A 108       1.914  13.019  12.322  1.00  8.43     0.079 C 
HETATM   39  C32 RAP A 108       2.570  11.672  12.624  1.00 10.69     0.157 C 
HETATM   40  C33 RAP A 108       3.507  11.647  13.826  1.00  6.51     0.095 C 
HETATM   41  C34 RAP A 108       4.772  10.859  13.555  1.00  9.62     0.132 C 
HETATM   42  C43 RAP A 108       4.433   7.314  18.911  1.00 11.25     0.005 C 
HETATM   43  C44 RAP A 108      -2.101  11.598  14.695  1.00 14.40     0.029 C 
HETATM   44  C45 RAP A 108      -0.846  19.669  11.426  1.00  9.23     0.005 C 
HETATM   45  C46 RAP A 108       1.226  16.339   8.977  1.00 15.99     0.008 C 
HETATM   46  C47 RAP A 108       3.390  15.432  13.674  1.00 14.60     0.029 C 
HETATM   47  C48 RAP A 108       0.756  12.822  11.332  1.00  9.37     0.013 C 
ENDROOT
BRANCH  41  48
HETATM   48  C35 RAP A 108       5.998  11.103  14.458  1.00  9.58     0.028 C 
HETATM   49  C49 RAP A 108       5.641  11.094  15.916  1.00  8.29     0.003 C 
BRANCH  48  50
HETATM   50  C36 RAP A 108       6.732  12.393  14.095  1.00 10.31     0.003 C 
BRANCH  50  51
HETATM   51  C37 RAP A 108       8.140  12.258  13.511  1.00 22.90     0.003 C 
HETATM   52  C38 RAP A 108       9.174  12.199  14.641  1.00 14.17     0.032 C 
HETATM   53  C39 RAP A 108      10.616  12.182  14.131  1.00 34.20     0.142 C 
HETATM   54  C40 RAP A 108      10.801  11.029  13.085  1.00 38.24     0.138 C 
HETATM   55  C41 RAP A 108       9.746  11.054  11.961  1.00 16.32     0.032 C 
HETATM   56  C42 RAP A 108       8.338  11.097  12.537  1.00 14.05     0.003 C 
BRANCH  53  57
HETATM   57  O12 RAP A 108      11.434  11.962  15.252  1.00 30.82    -0.352 OA
HETATM   58  C52 RAP A 108      10.862  12.187  16.495  1.00 28.14     0.174 C 
ENDBRANCH  53  57
BRANCH  54  59
HETATM   59  O13 RAP A 108      12.101  11.127  12.507  1.00 28.84    -0.382 OA
HETATM   60  HO3 RAP A 108      12.611  10.335  12.718  1.00 13.32     0.210 HD
ENDBRANCH  54  59
ENDBRANCH  50  51
ENDBRANCH  48  50
ENDBRANCH  41  48
BRANCH  35  61
HETATM   61  O10 RAP A 108       4.957  15.180  10.222  1.00 12.16    -0.378 OA
HETATM   62  HO1 RAP A 108       5.898  14.966  10.145  1.00 13.32     0.211 HD
ENDBRANCH  35  61
BRANCH  16  63
HETATM   63  O6  RAP A 108       1.479   6.914  18.554  1.00 14.16    -0.358 OA
HETATM   64  HO6 RAP A 108       1.214   6.021  18.312  1.00 13.32     0.213 HD
ENDBRANCH  16  63
BRANCH  34  65
HETATM   65  O9  RAP A 108       5.365  18.021  10.939  1.00 23.09    -0.344 OA
HETATM   66  C51 RAP A 108       6.299  18.005  11.961  1.00 19.04     0.175 C 
ENDBRANCH  34  65
BRANCH  23  67
HETATM   67  O7  RAP A 108      -1.445  11.220  17.488  1.00 20.17    -0.350 OA
HETATM   68  C50 RAP A 108      -1.646  11.996  18.625  1.00 28.36     0.175 C 
ENDBRANCH  23  67
TORSDOF 9
ENDMDL
