MODEL 1
REMARK VINA RESULT:   -10.846      0.000      0.000
REMARK INTER + INTRA:         -17.912
REMARK INTER:                 -15.601
REMARK INTRA:                  -2.311
REMARK UNBOUND:                -2.311
REMARK  9 active torsions:
REMARK  status: ('A' for Active; 'I' for Inactive)
REMARK    1  A    between atoms: O6_12  and  C10_19 
REMARK    2  A    between atoms: O7_14  and  C16_29 
REMARK    3  A    between atoms: O9_18  and  C27_40 
REMARK    4  A    between atoms: O10_20  and  C28_41 
REMARK    5  A    between atoms: O12_24  and  C39_52 
REMARK    6  A    between atoms: O13_26  and  C40_53 
REMARK    7  A    between atoms: C34_47  and  C35_48 
REMARK    8  A    between atoms: C35_48  and  C36_49 
REMARK    9  A    between atoms: C36_49  and  C37_50 
ROOT
HETATM    1  C1  RAP A 108       4.729   8.382  12.896  1.00  5.98     0.292 C 
HETATM    2  O1  RAP A 108       4.399   9.461  13.761  1.00  9.08    -0.302 OA
HETATM    3  C2  RAP A 108       4.257   6.953  13.164  1.00  6.42     0.171 C 
HETATM    4  O2  RAP A 108       5.442   8.618  11.924  1.00 14.08    -0.262 OA
HETATM    5  C3  RAP A 108       3.756   6.293  11.888  1.00  5.50     0.033 C 
HETATM    6  O3  RAP A 108       4.682   6.057  15.652  1.00 10.38    -0.264 OA
HETATM    7  C4  RAP A 108       2.386   6.784  11.443  1.00  4.49     0.004 C 
HETATM    8  O4  RAP A 108       1.921   5.184  16.524  1.00 10.60    -0.281 OA
HETATM    9  C5  RAP A 108       1.418   6.595  12.598  1.00  4.19     0.024 C 
HETATM   10  O5  RAP A 108       1.473   8.305  16.763  1.00 10.76    -0.332 OA
HETATM   11  C6  RAP A 108       1.884   7.338  13.812  1.00  3.25     0.105 C 
HETATM   12  N7  RAP A 108       3.209   6.811  14.180  1.00  8.46    -0.307 N 
HETATM   13  C8  RAP A 108       3.514   6.394  15.418  1.00 10.06     0.297 C 
HETATM   14  O8  RAP A 108       3.751  17.659   8.947  1.00 18.31    -0.293 OA
HETATM   15  C9  RAP A 108       2.550   6.246  16.439  1.00 11.13     0.279 C 
HETATM   16  C10 RAP A 108       2.252   7.360  17.459  1.00 16.59     0.246 C 
HETATM   17  C11 RAP A 108       3.555   8.068  18.015  1.00 10.40     0.059 C 
HETATM   18  O11 RAP A 108       2.370  10.643  11.952  1.00  9.49    -0.296 OA
HETATM   19  C12 RAP A 108       3.205   9.366  18.778  1.00 12.17     0.008 C 
HETATM   20  C13 RAP A 108       2.265  10.233  17.952  1.00 12.80     0.030 C 
HETATM   21  C14 RAP A 108       1.070   9.470  17.391  1.00 10.37     0.121 C 
HETATM   22  C15 RAP A 108       0.405  10.290  16.300  1.00  5.94     0.064 C 
HETATM   23  C16 RAP A 108      -0.339  11.544  16.743  1.00  9.79     0.136 C 
HETATM   24  C17 RAP A 108      -0.921  12.287  15.560  1.00 15.52    -0.017 C 
HETATM   25  C18 RAP A 108      -0.436  13.487  15.266  1.00 14.38    -0.006 C 
HETATM   26  C19 RAP A 108      -0.877  14.315  14.135  1.00  9.73    -0.001 C 
HETATM   27  C20 RAP A 108      -0.351  15.522  13.977  1.00 10.26    -0.000 C 
HETATM   28  C21 RAP A 108      -0.683  16.353  12.805  1.00 11.40    -0.005 C 
HETATM   29  C22 RAP A 108      -0.020  17.460  12.527  1.00 17.77    -0.026 C 
HETATM   30  C23 RAP A 108      -0.241  18.292  11.283  1.00 15.64     0.022 C 
HETATM   31  C24 RAP A 108       1.104  18.398  10.585  1.00 14.68     0.012 C 
HETATM   32  C25 RAP A 108       1.840  17.103  10.295  1.00 11.87     0.061 C 
HETATM   33  C26 RAP A 108       3.321  17.364  10.059  1.00 11.65     0.180 C 
HETATM   34  C27 RAP A 108       4.242  17.227  11.268  1.00  8.13     0.203 C 
HETATM   35  C28 RAP A 108       4.691  15.756  11.546  1.00 10.80     0.163 C 
HETATM   36  C29 RAP A 108       3.646  14.929  12.320  1.00  9.60    -0.019 C 
HETATM   37  C30 RAP A 108       2.961  13.927  11.769  1.00  8.55    -0.025 C 
HETATM   38  C31 RAP A 108       1.927  12.983  12.401  1.00  8.43     0.079 C 
HETATM   39  C32 RAP A 108       2.574  11.625  12.673  1.00 10.69     0.157 C 
HETATM   40  C33 RAP A 108       3.529  11.574  13.860  1.00  6.51     0.095 C 
HETATM   41  C34 RAP A 108       4.781  10.776  13.558  1.00  9.62     0.132 C 
HETATM   42  C43 RAP A 108       4.489   7.163  18.871  1.00 11.25     0.005 C 
HETATM   43  C44 RAP A 108      -2.064  11.572  14.818  1.00 14.40     0.029 C 
HETATM   44  C45 RAP A 108      -0.774  19.673  11.638  1.00  9.23     0.005 C 
HETATM   45  C46 RAP A 108       1.222  16.354   9.112  1.00 15.99     0.008 C 
HETATM   46  C47 RAP A 108       3.451  15.361  13.761  1.00 14.60     0.029 C 
HETATM   47  C48 RAP A 108       0.752  12.812  11.426  1.00  9.37     0.013 C 
ENDROOT
BRANCH  41  48
HETATM   48  C35 RAP A 108       6.024  10.995  14.444  1.00  9.58     0.028 C 
HETATM   49  C49 RAP A 108       5.679  11.047  15.905  1.00  8.29     0.003 C 
BRANCH  48  50
HETATM   50  C36 RAP A 108       6.809  12.240  14.036  1.00 10.31     0.003 C 
BRANCH  50  51
HETATM   51  C37 RAP A 108       7.437  12.247  12.640  1.00 22.90     0.003 C 
HETATM   52  C38 RAP A 108       7.732  13.687  12.204  1.00 14.17     0.032 C 
HETATM   53  C39 RAP A 108       8.254  13.781  10.769  1.00 34.20     0.142 C 
HETATM   54  C40 RAP A 108       9.487  12.831  10.583  1.00 38.24     0.138 C 
HETATM   55  C41 RAP A 108       9.217  11.387  11.051  1.00 16.32     0.032 C 
HETATM   56  C42 RAP A 108       8.676  11.368  12.474  1.00 14.05     0.003 C 
BRANCH  53  57
HETATM   57  O12 RAP A 108       8.632  15.119  10.569  1.00 30.82    -0.352 OA
HETATM   58  C52 RAP A 108       9.597  15.630  11.424  1.00 28.14     0.174 C 
ENDBRANCH  53  57
BRANCH  54  59
HETATM   59  O13 RAP A 108       9.860  12.814   9.207  1.00 28.84    -0.382 OA
HETATM   60  HO3 RAP A 108      10.677  12.310   9.098  1.00 13.32     0.210 HD
ENDBRANCH  54  59
ENDBRANCH  50  51
ENDBRANCH  48  50
ENDBRANCH  41  48
BRANCH  35  61
HETATM   61  O10 RAP A 108       4.959  15.139  10.281  1.00 12.16    -0.378 OA
HETATM   62  HO1 RAP A 108       5.296  15.780   9.637  1.00 13.32     0.211 HD
ENDBRANCH  35  61
BRANCH  16  63
HETATM   63  O6  RAP A 108       1.526   6.799  18.556  1.00 14.16    -0.358 OA
HETATM   64  HO6 RAP A 108       1.499   7.452  19.261  1.00 13.32     0.213 HD
ENDBRANCH  16  63
BRANCH  34  65
HETATM   65  O9  RAP A 108       5.410  17.966  11.028  1.00 23.09    -0.344 OA
HETATM   66  C51 RAP A 108       6.402  17.844  11.987  1.00 19.04     0.175 C 
ENDBRANCH  34  65
BRANCH  23  67
HETATM   67  O7  RAP A 108      -1.368  11.149  17.595  1.00 20.17    -0.350 OA
HETATM   68  C50 RAP A 108      -1.534  11.904  18.753  1.00 28.36     0.175 C 
ENDBRANCH  23  67
TORSDOF 9
ENDMDL
MODEL 2
REMARK VINA RESULT:   -10.538      1.139      1.378
REMARK INTER + INTRA:         -17.470
REMARK INTER:                 -15.788
REMARK INTRA:                  -1.683
REMARK UNBOUND:                -2.311
REMARK  9 active torsions:
REMARK  status: ('A' for Active; 'I' for Inactive)
REMARK    1  A    between atoms: O6_12  and  C10_19 
REMARK    2  A    between atoms: O7_14  and  C16_29 
REMARK    3  A    between atoms: O9_18  and  C27_40 
REMARK    4  A    between atoms: O10_20  and  C28_41 
REMARK    5  A    between atoms: O12_24  and  C39_52 
REMARK    6  A    between atoms: O13_26  and  C40_53 
REMARK    7  A    between atoms: C34_47  and  C35_48 
REMARK    8  A    between atoms: C35_48  and  C36_49 
REMARK    9  A    between atoms: C36_49  and  C37_50 
ROOT
HETATM    1  C1  RAP A 108       4.705   8.443  12.849  1.00  5.98     0.292 C 
HETATM    2  O1  RAP A 108       4.376   9.520  13.717  1.00  9.08    -0.302 OA
HETATM    3  C2  RAP A 108       4.248   7.011  13.123  1.00  6.42     0.171 C 
HETATM    4  O2  RAP A 108       5.406   8.684  11.869  1.00 14.08    -0.262 OA
HETATM    5  C3  RAP A 108       3.739   6.346  11.852  1.00  5.50     0.033 C 
HETATM    6  O3  RAP A 108       4.706   6.120  15.607  1.00 10.38    -0.264 OA
HETATM    7  C4  RAP A 108       2.360   6.825  11.422  1.00  4.49     0.004 C 
HETATM    8  O4  RAP A 108       1.961   5.226  16.508  1.00 10.60    -0.281 OA
HETATM    9  C5  RAP A 108       1.407   6.629  12.586  1.00  4.19     0.024 C 
HETATM   10  O5  RAP A 108       1.490   8.344  16.749  1.00 10.76    -0.332 OA
HETATM   11  C6  RAP A 108       1.879   7.377  13.795  1.00  3.25     0.105 C 
HETATM   12  N7  RAP A 108       3.211   6.861  14.150  1.00  8.46    -0.307 N 
HETATM   13  C8  RAP A 108       3.533   6.447  15.385  1.00 10.06     0.297 C 
HETATM   14  O8  RAP A 108       3.612  17.709   8.903  1.00 18.31    -0.293 OA
HETATM   15  C9  RAP A 108       2.580   6.293  16.416  1.00 11.13     0.279 C 
HETATM   16  C10 RAP A 108       2.284   7.406  17.438  1.00 16.59     0.246 C 
HETATM   17  C11 RAP A 108       3.587   8.125  17.980  1.00 10.40     0.059 C 
HETATM   18  O11 RAP A 108       2.319  10.685  11.927  1.00  9.49    -0.296 OA
HETATM   19  C12 RAP A 108       3.234   9.420  18.746  1.00 12.17     0.008 C 
HETATM   20  C13 RAP A 108       2.279  10.279  17.929  1.00 12.80     0.030 C 
HETATM   21  C14 RAP A 108       1.084   9.505  17.380  1.00 10.37     0.121 C 
HETATM   22  C15 RAP A 108       0.401  10.320  16.295  1.00  5.94     0.064 C 
HETATM   23  C16 RAP A 108      -0.348  11.568  16.746  1.00  9.79     0.136 C 
HETATM   24  C17 RAP A 108      -0.948  12.305  15.568  1.00 15.52    -0.017 C 
HETATM   25  C18 RAP A 108      -0.476  13.508  15.268  1.00 14.38    -0.006 C 
HETATM   26  C19 RAP A 108      -0.935  14.332  14.141  1.00  9.73    -0.001 C 
HETATM   27  C20 RAP A 108      -0.421  15.543  13.976  1.00 10.26    -0.000 C 
HETATM   28  C21 RAP A 108      -0.771  16.370  12.807  1.00 11.40    -0.005 C 
HETATM   29  C22 RAP A 108      -0.120  17.482  12.522  1.00 17.77    -0.026 C 
HETATM   30  C23 RAP A 108      -0.361  18.312  11.280  1.00 15.64     0.022 C 
HETATM   31  C24 RAP A 108       0.976  18.428  10.568  1.00 14.68     0.012 C 
HETATM   32  C25 RAP A 108       1.719  17.138  10.271  1.00 11.87     0.061 C 
HETATM   33  C26 RAP A 108       3.196  17.411  10.020  1.00 11.65     0.180 C 
HETATM   34  C27 RAP A 108       4.130  17.282  11.219  1.00  8.13     0.203 C 
HETATM   35  C28 RAP A 108       4.594  15.816  11.494  1.00 10.80     0.163 C 
HETATM   36  C29 RAP A 108       3.564  14.980  12.279  1.00  9.60    -0.019 C 
HETATM   37  C30 RAP A 108       2.881  13.973  11.736  1.00  8.55    -0.025 C 
HETATM   38  C31 RAP A 108       1.862  13.021  12.379  1.00  8.43     0.079 C 
HETATM   39  C32 RAP A 108       2.522  11.668  12.646  1.00 10.69     0.157 C 
HETATM   40  C33 RAP A 108       3.490  11.626  13.823  1.00  6.51     0.095 C 
HETATM   41  C34 RAP A 108       4.745  10.839  13.509  1.00  9.62     0.132 C 
HETATM   42  C43 RAP A 108       4.537   7.227  18.827  1.00 11.25     0.005 C 
HETATM   43  C44 RAP A 108      -2.093  11.580  14.838  1.00 14.40     0.029 C 
HETATM   44  C45 RAP A 108      -0.901  19.688  11.638  1.00  9.23     0.005 C 
HETATM   45  C46 RAP A 108       1.095  16.384   9.095  1.00 15.99     0.008 C 
HETATM   46  C47 RAP A 108       3.380  15.412  13.721  1.00 14.60     0.029 C 
HETATM   47  C48 RAP A 108       0.678  12.840  11.416  1.00  9.37     0.013 C 
ENDROOT
BRANCH  41  48
HETATM   48  C35 RAP A 108       5.995  11.068  14.382  1.00  9.58     0.028 C 
HETATM   49  C49 RAP A 108       5.674  11.056  15.849  1.00  8.29     0.003 C 
BRANCH  48  50
HETATM   50  C36 RAP A 108       6.731  12.353  14.006  1.00 10.31     0.003 C 
BRANCH  50  51
HETATM   51  C37 RAP A 108       8.058  12.209  13.259  1.00 22.90     0.003 C 
HETATM   52  C38 RAP A 108       9.179  11.852  14.242  1.00 14.17     0.032 C 
HETATM   53  C39 RAP A 108      10.559  11.806  13.584  1.00 34.20     0.142 C 
HETATM   54  C40 RAP A 108      10.527  10.856  12.337  1.00 38.24     0.138 C 
HETATM   55  C41 RAP A 108       9.382  11.181  11.356  1.00 16.32     0.032 C 
HETATM   56  C42 RAP A 108       8.045  11.237  12.080  1.00 14.05     0.003 C 
BRANCH  53  57
HETATM   57  O12 RAP A 108      11.447  11.311  14.553  1.00 30.82    -0.352 OA
HETATM   58  C52 RAP A 108      12.452  12.168  14.974  1.00 28.14     0.174 C 
ENDBRANCH  53  57
BRANCH  54  59
HETATM   59  O13 RAP A 108      11.772  10.948  11.647  1.00 28.84    -0.382 OA
HETATM   60  HO3 RAP A 108      12.487  10.654  12.227  1.00 13.32     0.210 HD
ENDBRANCH  54  59
ENDBRANCH  50  51
ENDBRANCH  48  50
ENDBRANCH  41  48
BRANCH  35  61
HETATM   61  O10 RAP A 108       4.854  15.200  10.226  1.00 12.16    -0.378 OA
HETATM   62  HO1 RAP A 108       5.665  15.545   9.823  1.00 13.32     0.211 HD
ENDBRANCH  35  61
BRANCH  16  63
HETATM   63  O6  RAP A 108       1.574   6.839  18.543  1.00 14.16    -0.358 OA
HETATM   64  HO6 RAP A 108       0.667   6.681  18.265  1.00 13.32     0.213 HD
ENDBRANCH  16  63
BRANCH  34  65
HETATM   65  O9  RAP A 108       5.290  18.031  10.967  1.00 23.09    -0.344 OA
HETATM   66  C51 RAP A 108       5.478  19.134  11.783  1.00 19.04     0.175 C 
ENDBRANCH  34  65
BRANCH  23  67
HETATM   67  O7  RAP A 108      -1.365  11.165  17.608  1.00 20.17    -0.350 OA
HETATM   68  C50 RAP A 108      -1.648  12.021  18.669  1.00 28.36     0.175 C 
ENDBRANCH  23  67
TORSDOF 9
ENDMDL
