MODEL 1
REMARK VINA RESULT:    -7.699      0.000      0.000
REMARK INTER + INTRA:         -17.835
REMARK INTER:                 -14.675
REMARK INTRA:                  -3.160
REMARK UNBOUND:                -3.160
REMARK  22 active torsions:
REMARK  status: ('A' for Active; 'I' for Inactive)
REMARK    1  A    between atoms: C2_2  and  N6_42 
REMARK    2  A    between atoms: C3_3  and  O13_41 
REMARK    3  A    between atoms: C4_4  and  O5_20 
REMARK    4  A    between atoms: C5_5  and  O1_8 
REMARK    5  A    between atoms: C6_6  and  N1_7 
REMARK    6  A    between atoms: O1_8  and  C7_9 
REMARK    7  A    between atoms: C8_10  and  N3_19 
REMARK    8  A    between atoms: C9_11  and  O4_18 
REMARK    9  A    between atoms: C10_12  and  O3_17 
REMARK   10  A    between atoms: C11_13  and  C12_15 
REMARK   11  A    between atoms: C12_15  and  N2_16 
REMARK   12  A    between atoms: O5_20  and  C13_21 
REMARK   13  A    between atoms: C14_22  and  O12_40 
REMARK   14  A    between atoms: C15_23  and  O8_28 
REMARK   15  A    between atoms: C16_24  and  C17_26 
REMARK   16  A    between atoms: C17_26  and  O7_27 
REMARK   17  A    between atoms: O8_28  and  C18_29 
REMARK   18  A    between atoms: C19_30  and  N5_39 
REMARK   19  A    between atoms: C20_31  and  O11_38 
REMARK   20  A    between atoms: C21_32  and  O10_37 
REMARK   21  A    between atoms: C22_33  and  C23_35 
REMARK   22  A    between atoms: C23_35  and  N4_36 
ROOT
HETATM    1  C1  NEO     1      16.035  14.287 -15.179  1.00  0.00     0.076 C 
HETATM    2  C2  NEO     1      15.230  14.801 -16.382  1.00  0.00     0.251 C 
HETATM    3  C3  NEO     1      14.071  15.708 -15.912  1.00  0.00     0.182 C 
HETATM    4  C4  NEO     1      14.611  16.884 -15.072  1.00  0.00     0.186 C 
HETATM    5  C5  NEO     1      15.408  16.374 -13.850  1.00  0.00     0.189 C 
HETATM    6  C6  NEO     1      16.568  15.452 -14.320  1.00  0.00     0.251 C 
ENDROOT
BRANCH   4   7
HETATM    7  O5  NEO     1      13.514  17.663 -14.612  1.00  0.00    -0.348 OA
BRANCH   7   8
HETATM    8  C13 NEO     1      13.495  18.951 -15.204  1.00  0.00     0.292 C 
HETATM    9  C14 NEO     1      14.854  19.260 -15.812  1.00  0.00     0.205 C 
HETATM   10  C15 NEO     1      14.501  20.232 -16.913  1.00  0.00     0.189 C 
HETATM   11  C16 NEO     1      13.089  19.765 -17.297  1.00  0.00     0.180 C 
HETATM   12  O6  NEO     1      12.549  18.978 -16.251  1.00  0.00    -0.348 OA
BRANCH   9  13
HETATM   13  O12 NEO     1      15.788  19.769 -14.887  1.00  0.00    -0.388 OA
HETATM   14  H43 NEO     1      15.353  19.849 -13.999  1.00  0.00     0.210 HD
ENDBRANCH   9  13
BRANCH  10  15
HETATM   15  O8  NEO     1      14.406  21.555 -16.401  1.00  0.00    -0.348 OA
BRANCH  15  16
HETATM   16  C18 NEO     1      15.050  22.487 -17.244  1.00  0.00     0.296 C 
HETATM   17  C19 NEO     1      16.573  22.416 -16.984  1.00  0.00     0.303 C 
HETATM   18  C20 NEO     1      17.313  23.497 -17.803  1.00  0.00     0.187 C 
HETATM   19  C21 NEO     1      16.627  24.874 -17.672  1.00  0.00     0.179 C 
HETATM   20  C22 NEO     1      15.101  24.727 -17.887  1.00  0.00     0.183 C 
HETATM   21  O9  NEO     1      14.566  23.793 -16.965  1.00  0.00    -0.349 OA
BRANCH  17  22
HETATM   22  N5  NEO     1      16.891  22.544 -15.556  1.00  0.00     0.090 N 
HETATM   23  H41 NEO     1      16.078  22.948 -15.038  1.00  0.00     0.313 HD
HETATM   24  H42 NEO     1      17.062  21.589 -15.163  1.00  0.00     0.313 HD
ENDBRANCH  17  22
BRANCH  18  25
HETATM   25  O11 NEO     1      17.345  23.131 -19.158  1.00  0.00    -0.391 OA
HETATM   26  H40 NEO     1      17.681  23.916 -19.663  1.00  0.00     0.210 HD
ENDBRANCH  18  25
BRANCH  19  27
HETATM   27  O10 NEO     1      16.881  25.428 -16.406  1.00  0.00    -0.390 OA
HETATM   28  H39 NEO     1      16.008  25.492 -15.940  1.00  0.00     0.210 HD
ENDBRANCH  19  27
BRANCH  20  29
HETATM   29  C23 NEO     1      14.349  26.065 -17.709  1.00  0.00     0.301 C 
BRANCH  29  30
HETATM   30  N4  NEO     1      13.106  26.121 -18.475  1.00  0.00     0.080 N 
HETATM   31  H37 NEO     1      12.351  25.629 -17.946  1.00  0.00     0.312 HD
HETATM   32  H38 NEO     1      12.820  27.118 -18.610  1.00  0.00     0.312 HD
ENDBRANCH  29  30
ENDBRANCH  20  29
ENDBRANCH  15  16
ENDBRANCH  10  15
BRANCH  11  33
HETATM   33  C17 NEO     1      13.070  18.964 -18.611  1.00  0.00     0.198 C 
BRANCH  33  34
HETATM   34  O7  NEO     1      14.319  19.009 -19.250  1.00  0.00    -0.398 OA
HETATM   35  H29 NEO     1      14.999  19.175 -18.545  1.00  0.00     0.209 HD
ENDBRANCH  33  34
ENDBRANCH  11  33
ENDBRANCH   7   8
ENDBRANCH   4   7
BRANCH   3  36
HETATM   36  O13 NEO     1      13.393  16.207 -17.038  1.00  0.00    -0.391 OA
HETATM   37  H44 NEO     1      14.038  16.202 -17.794  1.00  0.00     0.210 HD
ENDBRANCH   3  36
BRANCH   5  38
HETATM   38  O1  NEO     1      15.924  17.517 -13.186  1.00  0.00    -0.349 OA
BRANCH  38  39
HETATM   39  C7  NEO     1      15.570  17.582 -11.808  1.00  0.00     0.296 C 
HETATM   40  C8  NEO     1      15.332  19.043 -11.383  1.00  0.00     0.303 C 
HETATM   41  C9  NEO     1      16.650  19.835 -11.484  1.00  0.00     0.187 C 
HETATM   42  C10 NEO     1      17.788  19.102 -10.744  1.00  0.00     0.179 C 
HETATM   43  C11 NEO     1      17.848  17.621 -11.197  1.00  0.00     0.183 C 
HETATM   44  O2  NEO     1      16.584  16.998 -11.005  1.00  0.00    -0.349 OA
BRANCH  40  45
HETATM   45  N3  NEO     1      14.300  19.653 -12.225  1.00  0.00     0.090 N 
HETATM   46  H21 NEO     1      13.767  18.890 -12.704  1.00  0.00     0.313 HD
HETATM   47  H22 NEO     1      13.611  20.133 -11.602  1.00  0.00     0.313 HD
ENDBRANCH  40  45
BRANCH  41  48
HETATM   48  O4  NEO     1      16.489  21.142 -10.987  1.00  0.00    -0.391 OA
HETATM   49  H20 NEO     1      15.840  21.101 -10.238  1.00  0.00     0.210 HD
ENDBRANCH  41  48
BRANCH  42  50
HETATM   50  O3  NEO     1      19.004  19.744 -11.028  1.00  0.00    -0.390 OA
HETATM   51  H19 NEO     1      19.698  19.314 -10.464  1.00  0.00     0.210 HD
ENDBRANCH  42  50
BRANCH  43  52
HETATM   52  C12 NEO     1      18.882  16.806 -10.384  1.00  0.00     0.301 C 
BRANCH  52  53
HETATM   53  N2  NEO     1      18.342  15.560  -9.841  1.00  0.00     0.080 N 
HETATM   54  H17 NEO     1      19.023  15.142  -9.170  1.00  0.00     0.312 HD
HETATM   55  H18 NEO     1      18.169  14.876 -10.613  1.00  0.00     0.312 HD
ENDBRANCH  52  53
ENDBRANCH  43  52
ENDBRANCH  38  39
ENDBRANCH   5  38
BRANCH   2  56
HETATM   56  N6  NEO     1      14.731  13.659 -17.155  1.00  0.00     0.085 N 
HETATM   57  H45 NEO     1      14.410  12.909 -16.498  1.00  0.00     0.313 HD
HETATM   58  H46 NEO     1      13.898  13.960 -17.716  1.00  0.00     0.313 HD
ENDBRANCH   2  56
BRANCH   6  59
HETATM   59  N1  NEO     1      17.317  14.928 -13.175  1.00  0.00     0.085 N 
HETATM   60  H8  NEO     1      18.243  14.569 -13.501  1.00  0.00     0.313 HD
HETATM   61  H9  NEO     1      17.500  15.708 -12.502  1.00  0.00     0.313 HD
ENDBRANCH   6  59
TORSDOF 22
ENDMDL
