MODEL 1
REMARK VINA RESULT:    -7.697      0.000      0.000
REMARK INTER + INTRA:         -10.337
REMARK INTER:                  -9.722
REMARK INTRA:                  -0.615
REMARK UNBOUND:                -0.615
REMARK  6 active torsions:
REMARK  status: ('A' for Active; 'I' for Inactive)
REMARK    1  A    between atoms: C2_2  and  N1_3 
REMARK    2  A    between atoms: C4_5  and  C16_21 
REMARK    3  A    between atoms: C5_6  and  O1_7 
REMARK    4  A    between atoms: C9_11  and  N2_14 
REMARK    5  A    between atoms: C16_21  and  O2_22 
REMARK    6  A    between atoms: C16_21  and  O3_23 
ROOT
HETATM    1  N1  NOR     1      16.911  15.192 -13.841  1.00  0.00     0.093 N 
HETATM    2  C3  NOR     1      17.205  13.979 -14.653  1.00  0.00     0.284 C 
HETATM    3  C4  NOR     1      15.950  13.201 -15.148  1.00  0.00     0.098 C 
HETATM    4  C5  NOR     1      14.864  14.122 -15.798  1.00  0.00     0.135 C 
HETATM    5  C6  NOR     1      15.204  15.615 -15.626  1.00  0.00     0.051 C 
HETATM    6  C7  NOR     1      14.058  16.553 -16.106  1.00  0.00     0.049 C 
HETATM    7  C8  NOR     1      13.352  17.308 -14.965  1.00  0.00     0.204 C 
HETATM    8  C9  NOR     1      14.332  18.041 -13.997  1.00  0.00     0.258 C 
HETATM    9  C10 NOR     1      15.740  17.381 -13.934  1.00  0.00     0.075 C 
HETATM   10  C11 NOR     1      15.626  15.864 -14.158  1.00  0.00     0.231 C 
HETATM   11  F1  NOR     1      12.417  18.187 -15.488  1.00  0.00    -0.247 F 
ENDROOT
BRANCH   8  12
HETATM   12  N2  NOR     1      14.357  19.515 -14.210  1.00  0.00     0.099 N 
HETATM   13  C12 NOR     1      14.585  20.256 -12.954  1.00  0.00     0.302 C 
HETATM   14  C13 NOR     1      14.376  21.757 -13.190  1.00  0.00     0.299 C 
HETATM   15  N3  NOR     1      15.259  22.254 -14.254  1.00  0.00     0.086 N 
HETATM   16  C14 NOR     1      15.061  21.492 -15.494  1.00  0.00     0.299 C 
HETATM   17  H13 NOR     1      16.254  22.143 -13.946  1.00  0.00     0.315 HD
HETATM   18  C15 NOR     1      15.278  19.992 -15.263  1.00  0.00     0.302 C 
ENDBRANCH   8  12
BRANCH   1  19
HETATM   19  C2  NOR     1      17.105  14.961 -12.391  1.00  0.00     0.268 C 
HETATM   20  C1  NOR     1      18.556  14.580 -12.122  1.00  0.00     0.037 C 
ENDBRANCH   1  19
BRANCH   4  21
HETATM   21  O1  NOR     1      14.750  13.835 -17.168  1.00  0.00    -0.395 OA
HETATM   22  H4  NOR     1      15.431  13.142 -17.373  1.00  0.00     0.210 HD
ENDBRANCH   4  21
BRANCH   3  23
HETATM   23  C16 NOR     1      15.367  12.259 -14.064  1.00  0.00     0.262 C 
BRANCH  23  24
HETATM   24  O2  NOR     1      14.813  11.118 -14.670  1.00  0.00    -0.371 OA
HETATM   25  H12 NOR     1      14.485  10.534 -13.937  1.00  0.00     0.212 HD
ENDBRANCH  23  24
BRANCH  23  26
HETATM   26  O3  NOR     1      14.370  12.911 -13.327  1.00  0.00    -0.371 OA
HETATM   27  H18 NOR     1      14.827  13.618 -12.801  1.00  0.00     0.212 HD
ENDBRANCH  23  26
ENDBRANCH   3  23
TORSDOF 6
ENDMDL
