@<TRIPOS>MOLECULE
*****
   21    22     1     0     0
SMALL
bcc


@<TRIPOS>ATOM
      1 C1         -25.1680     0.5960    47.9320 c1         1 NDX      -0.035000
      2 N1         -24.0720     2.1580    46.2920 n3         1 NDX      -0.090600
      3 O1         -25.4490     5.5520    44.1240 oh         1 NDX      -0.527100
      4 C2         -23.9050     0.9450    47.1250 c1         1 NDX      -0.572200
      5 N2         -23.2870     3.5900    48.1050 n7         1 NDX      -0.574800
      6 O2         -25.6720     3.5380    41.9110 oh         1 NDX      -0.463600
      7 C3         -25.0840     1.9330    45.2370 c1         1 NDX       0.072500
      8 O3         -26.2080     1.4910    42.7070 oh         1 NDX      -0.463600
      9 C4         -25.1340     3.1100    44.2420 c2         1 NDX      -0.310700
     10 C5         -25.4720     4.4160    45.0010 c2         1 NDX       0.261100
     11 C6         -24.5080     4.6470    46.1860 c2         1 NDX      -0.120700
     12 C7         -24.3400     3.3890    47.0770 c2         1 NDX       0.376000
     13 C8         -23.1370     4.9840    48.5860 c2         1 NDX       0.006600
     14 C9         -24.4470     5.7910    48.4950 c1         1 NDX      -0.149300
     15 C10        -24.9630     5.8530    47.0410 c1         1 NDX      -0.128300
     16 C11        -22.5560     5.0110    50.0050 c1         1 NDX       0.255700
     17 C12        -26.1230     2.8590    43.0760 c2         1 NDX       0.511200
     18 H4         -24.6060     6.0260    44.2420 ho         1 NDX       0.468000
     19 H7         -22.3900     3.2520    47.7640 hn         1 NDX       0.514800
     20 H12        -25.3120     4.3890    42.2090 ho         1 NDX       0.485500
     21 H2         -26.4610     1.5030    41.7670 ho         1 NDX       0.485500
@<TRIPOS>BOND
     1    21     8 1   
     2     6    20 1   
     3     6    17 1   
     4     8    17 1   
     5    17     9 1   
     6     3    18 1   
     7     3    10 1   
     8     9    10 1   
     9     9     7 1   
    10    10    11 1   
    11     7     2 1   
    12    11    12 1   
    13    11    15 1   
    14     2     4 1   
    15     2    12 1   
    16     4     1 1   
    17    12     5 1   
    18    15    14 1   
    19    19     5 1   
    20     5    13 1   
    21    14    13 1   
    22    13    16 1   
@<TRIPOS>SUBSTRUCTURE
     1 NDX         1 TEMP              0 ****  ****    0 ROOT
