@<TRIPOS>MOLECULE
*****
 53 55 0 0 0
SMALL
GASTEIGER

@<TRIPOS>ATOM
      1  C1        17.1249   20.4537  -12.4581 C.3     1  PEN1       -0.0490
      2  N1        13.9675   19.7568  -14.4456 N.3     1  PEN1       -0.2537
      3  O1        14.2233   19.4560  -17.0517 O.3     1  PEN1       -0.3755
      4  S1        15.1421   18.5115  -12.4238 S.3     1  PEN1       -0.1321
      5  C2        16.1849   19.6422  -13.3837 C.3     1  PEN1        0.0329
      6  N2        14.1325   17.1420  -15.8792 N.3     1  PEN1       -0.2832
      7  O2        14.3473   15.1598  -17.1294 O.3     1  PEN1       -0.3774
      8  C3        15.2152   20.5276  -14.2206 C.3     1  PEN1        0.0784
      9  O3        13.9721   22.6042  -14.5200 O.3     1  PEN1       -0.3658
     10  C4        13.8775   18.4774  -13.7330 C.3     1  PEN1        0.0791
     11  O4        14.0892   21.7315  -12.3836 O.3     1  PEN1       -0.3658
     12  C5        13.2673   18.0126  -15.0316 C.3     1  PEN1        0.0746
     13  C6        13.4931   19.3820  -15.8257 C.3     1  PEN1        0.1278
     14  C7        13.8051   15.7082  -15.9371 C.3     1  PEN1        0.1068
     15  C8        14.2916   14.9398  -14.6795 C.3     1  PEN1       -0.0104
     16  C9        15.8288   14.9726  -14.4333 C.3     1  PEN1       -0.0375
     17  C10       16.1512   14.5606  -12.9763 C.3     1  PEN1       -0.0501
     18  C11       17.6558   14.7441  -12.6519 C.3     1  PEN1       -0.0528
     19  C12       18.5768   14.5010  -13.8731 C.3     1  PEN1       -0.0530
     20  C13       17.9378   13.5088  -14.8633 C.3     1  PEN1       -0.0528
     21  C14       16.6114   14.0686  -15.4346 C.3     1  PEN1       -0.0501
     22  C15       14.8154   21.8968  -13.6042 C.3     1  PEN1        0.1703
     23  C16       17.0810   18.8367  -14.3572 C.3     1  PEN1       -0.0490
     24  H01       17.6939   21.1922  -13.0279 H       1  PEN1        0.0243
     25  H02       16.5653   20.9729  -11.6776 H       1  PEN1        0.0243
     26  H03       17.8349   19.7895  -11.9593 H       1  PEN1        0.0243
     27  H04       14.9940   20.0410  -16.9110 H       1  PEN1        0.2115
     28  H05       14.1795   17.5151  -16.8253 H       1  PEN1        0.1248
     29  H06       14.0490   15.7310  -17.8580 H       1  PEN1        0.2114
     30  H07       15.6871   20.7418  -15.1835 H       1  PEN1        0.0527
     31  H08       14.2090   22.3530  -15.4350 H       1  PEN1        0.2125
     32  H09       12.8834   18.3625  -13.2759 H       1  PEN1        0.0596
     33  H10       13.3360   22.3490  -12.3850 H       1  PEN1        0.2125
     34  H11       12.2236   17.6793  -14.9472 H       1  PEN1        0.0524
     35  H12       12.8539   20.2236  -15.5409 H       1  PEN1        0.0784
     36  H13       12.7128   15.6104  -16.0337 H       1  PEN1        0.0765
     37  H14       13.9534   13.9022  -14.7385 H       1  PEN1        0.0306
     38  H15       13.7852   15.3733  -13.8138 H       1  PEN1        0.0306
     39  H16       16.1771   15.9995  -14.5539 H       1  PEN1        0.0302
     40  H17       15.8709   13.5141  -12.8287 H       1  PEN1        0.0268
     41  H18       15.5630   15.1529  -12.2711 H       1  PEN1        0.0268
     42  H19       17.9256   14.0568  -11.8464 H       1  PEN1        0.0265
     43  H20       17.8302   15.7564  -12.2791 H       1  PEN1        0.0265
     44  H21       19.5458   14.1254  -13.5359 H       1  PEN1        0.0265
     45  H22       18.7590   15.4477  -14.3885 H       1  PEN1        0.0265
     46  H23       17.7463   12.5631  -14.3493 H       1  PEN1        0.0265
     47  H24       18.6288   13.2948  -15.6822 H       1  PEN1        0.0265
     48  H25       16.8340   14.6526  -16.3307 H       1  PEN1        0.0268
     49  H26       15.9945   13.2237  -15.7509 H       1  PEN1        0.0268
     50  H27       15.6952   22.5272  -13.4040 H       1  PEN1        0.0922
     51  H28       17.6943   18.1158  -13.8111 H       1  PEN1        0.0243
     52  H29       16.4830   18.2862  -15.0841 H       1  PEN1        0.0243
     53  H30       17.7491   19.5001  -14.9116 H       1  PEN1        0.0243
@<TRIPOS>BOND
     1    29     7    1
     2     7    14    1
     3    27     3    1
     4     3    13    1
     5    35    13    1
     6    28     6    1
     7    48    21    1
     8    14    36    1
     9    14     6    1
    10    14    15    1
    11    13    12    1
    12    13     2    1
    13     6    12    1
    14    37    15    1
    15    49    21    1
    16    34    12    1
    17    31     9    1
    18    21    16    1
    19    21    20    1
    20    47    20    1
    21    12    10    1
    22    30     8    1
    23    53    23    1
    24    52    23    1
    25    15    16    1
    26    15    38    1
    27    39    16    1
    28    16    17    1
    29    20    46    1
    30    20    19    1
    31     2     8    1
    32     2    10    1
    33     9    22    1
    34    23    51    1
    35    23     5    1
    36    45    19    1
    37     8    22    1
    38     8     5    1
    39    10    32    1
    40    10     4    1
    41    19    44    1
    42    19    18    1
    43    22    50    1
    44    22    11    1
    45     5     4    1
    46     5     1    1
    47    17    40    1
    48    17    18    1
    49    17    41    1
    50    11    33    1
    51    18    43    1
    52    18    42    1
    53    24     1    1
    54     1    25    1
    55     1    26    1
