@<TRIPOS>MOLECULE
PGL
 43 42 0 0 0
SMALL
GASTEIGER

@<TRIPOS>ATOM
      1 C           0.1570   -2.3110    0.0610 C.3     1  PGL        0.0857
      2 C           0.3920   -3.8190   -0.1630 C.3     1  PGL        0.1087
      3 C           0.3990   -4.2070   -1.6490 C.3     1  PGL        0.0791
      4 O           0.8990   -3.1470   -2.4590 O.3     1  PGL       -0.3492
      5 C           2.0980   -3.2400   -3.1690 C.3     1  PGL        0.1534
      6 C           2.0560   -3.5220   -4.6320 C.3     1  PGL       -0.0138
      7 O           3.2050   -3.0850   -2.5870 O.3     1  PGL       -0.3672
      8 O           1.5580   -4.3020    0.5180 O.3     1  PGL       -0.3440
      9 C           2.0910   -5.5960    0.4380 C.3     1  PGL        0.1539
     10 O           1.4480   -6.5990    0.8510 O.3     1  PGL       -0.3672
     11 C           3.4190   -5.7960   -0.2070 C.3     1  PGL       -0.0138
     12 O           1.1370   -1.7810    0.9280 O.3     1  PGL       -0.3057
     13 P           2.1340   -0.6710    0.0900 P.3     1  PGL        0.2603
     14 O           1.4510   -0.1720   -1.1640 O.3     1  PGL       -0.3243
     15 O           3.5720   -1.4490   -0.3460 O.3     1  PGL       -0.3243
     16 H           4.0460   -1.5970    0.5100 H       1  PGL        0.2201
     17 O           2.5220    0.6760    1.0730 O.3     1  PGL       -0.3071
     18 C           1.9200    0.5480    2.3440 C.3     1  PGL        0.0695
     19 C           0.5510    1.2410    2.4050 C.3     1  PGL        0.0172
     20 N          -0.4880    0.2730    2.7390 N.3     1  PGL       -0.3279
     21 H          -1.3000    0.7930    3.1470 H       1  PGL        0.1183
     22 H          -0.1170   -0.3410    3.5000 H       1  PGL        0.1183
     23 H           0.2074   -1.8033   -0.8795 H       1  PGL        0.0592
     24 H          -0.8074   -2.1732    0.5036 H       1  PGL        0.0592
     25 H          -0.4504   -4.3105    0.2770 H       1  PGL        0.0643
     26 H           1.0192   -5.0689   -1.7812 H       1  PGL        0.0587
     27 H          -0.6071   -4.4147   -1.9483 H       1  PGL        0.0587
     28 H           2.7312   -3.2697   -2.3070 H       1  PGL        0.0904
     29 H           1.0843   -3.2862   -5.0129 H       1  PGL        0.0278
     30 H           2.7896   -2.9245   -5.1316 H       1  PGL        0.0278
     31 H           2.2639   -4.5578   -4.8017 H       1  PGL        0.0278
     32 H           3.8513   -2.7786   -3.2122 H       1  PGL        0.2125
     33 H           2.0645   -5.4526    1.4980 H       1  PGL        0.0904
     34 H           1.2011   -7.1430    0.1123 H       1  PGL        0.2125
     35 H           3.2877   -5.9251   -1.2611 H       1  PGL        0.0278
     36 H           4.0357   -4.9404   -0.0265 H       1  PGL        0.0278
     37 H           3.8874   -6.6662    0.2033 H       1  PGL        0.0278
     38 H           3.2031   -1.0029    0.9797 H       1  PGL        0.1627
     39 H           0.5095   -0.2495   -1.0640 H       1  PGL        0.2201
     40 H           1.7909   -0.4916    2.5619 H       1  PGL        0.0578
     41 H           2.5601    1.0174    3.0615 H       1  PGL        0.0578
     42 H           0.5750    2.0062    3.1526 H       1  PGL        0.0444
     43 H           0.3340    1.6711    1.4496 H       1  PGL        0.0444
@<TRIPOS>BOND
     1     1     2    1
     2     1    12    1
     3     1    23    1
     4     1    24    1
     5     2     3    1
     6     2     8    1
     7     2    25    1
     8     3     4    1
     9     3    26    1
    10     3    27    1
    11     4     5    1
    12     5     6    1
    13     5     7    1
    14     5    28    1
    15     6    29    1
    16     6    30    1
    17     6    31    1
    18     7    32    1
    19     8     9    1
    20     9    10    1
    21     9    11    1
    22     9    33    1
    23    10    34    1
    24    11    35    1
    25    11    36    1
    26    11    37    1
    27    12    13    1
    28    13    14    1
    29    13    15    1
    30    13    17    1
    31    13    38    1
    32    14    39    1
    33    15    16    1
    34    17    18    1
    35    18    19    1
    36    18    40    1
    37    18    41    1
    38    19    20    1
    39    19    42    1
    40    19    43    1
    41    20    21    1
    42    20    22    1
