MODEL 1
REMARK VINA RESULT:      -3.2      0.000      0.000
REMARK  13 active torsions:
REMARK  status: ('A' for Active; 'I' for Inactive)
REMARK    1  A    between atoms: C5_1  and  C4_2 
REMARK    2  A    between atoms: C5_1  and  O3_12 
REMARK    3  A    between atoms: C4_2  and  C3_3 
REMARK    4  A    between atoms: C4_2  and  O7_8 
REMARK    5  A    between atoms: C3_3  and  O2_4 
REMARK    6  A    between atoms: O2_4  and  C2_5 
REMARK    7  A    between atoms: O7_8  and  C8_9 
REMARK    8  A    between atoms: O3_12  and  P1_13 
REMARK    9  A    between atoms: P1_13  and  O5_15 
REMARK   10  A    between atoms: P1_13  and  O6_17 
REMARK   11  A    between atoms: O6_17  and  C6_18 
REMARK   12  A    between atoms: C6_18  and  C7_19 
REMARK   13  A    between atoms: C7_19  and  N1_20 
ROOT
HETATM    1  C5  PGL A   1       3.424 -19.372  15.045  1.00  0.00     0.186 C 
ENDROOT
BRANCH   1   2
HETATM    2  C4  PGL A   1       2.280 -20.375  14.791  1.00  0.00     0.184 C 
BRANCH   2   3
HETATM    3  C3  PGL A   1       1.067 -19.733  14.102  1.00  0.00     0.184 C 
BRANCH   3   4
HETATM    4  O2  PGL A   1      -0.145 -20.061  14.776  1.00  0.00    -0.299 OA
BRANCH   4   5
HETATM    5  C2  PGL A   1      -1.265 -20.568  14.113  1.00  0.00     0.273 C 
HETATM    6  C1  PGL A   1      -1.197 -20.797  12.641  1.00  0.00     0.106 C 
HETATM    7  O1  PGL A   1      -2.323 -20.833  14.744  1.00  0.00    -0.264 OA
ENDBRANCH   4   5
ENDBRANCH   3   4
ENDBRANCH   2   3
BRANCH   2   8
HETATM    8  O7  PGL A   1       2.722 -21.552  14.102  1.00  0.00    -0.299 OA
BRANCH   8   9
HETATM    9  C8  PGL A   1       1.914 -22.608  13.659  1.00  0.00     0.273 C 
HETATM   10  O8  PGL A   1       1.201 -23.273  14.459  1.00  0.00    -0.264 OA
HETATM   11  C9  PGL A   1       1.849 -22.911  12.201  1.00  0.00     0.106 C 
ENDBRANCH   8   9
ENDBRANCH   2   8
ENDBRANCH   1   2
BRANCH   1  12
HETATM   12  O3  PGL A   1       4.587 -20.046  15.478  1.00  0.00    -0.275 OA
BRANCH  12  13
HETATM   13  P1  PGL A   1       5.859 -19.817  14.357  1.00  0.00     0.395 P 
HETATM   14  O4  PGL A   1       5.828 -18.418  13.785  1.00  0.00    -0.631 OA
BRANCH  13  15
HETATM   15  O5  PGL A   1       5.679 -20.926  13.092  1.00  0.00    -0.307 OA
HETATM   16  H9  PGL A   1       6.468 -20.776  12.513  1.00  0.00     0.222 HD
ENDBRANCH  13  15
BRANCH  13  17
HETATM   17  O6  PGL A   1       7.384 -20.074  15.091  1.00  0.00    -0.276 OA
BRANCH  17  18
HETATM   18  C6  PGL A   1       8.360 -20.362  14.111  1.00  0.00     0.188 C 
BRANCH  18  19
HETATM   19  C7  PGL A   1       9.297 -19.171  13.865  1.00  0.00     0.274 C 
BRANCH  19  20
HETATM   20  N1  PGL A   1       9.497 -18.977  12.433  1.00  0.00     0.097 N 
HETATM   21  H14 PGL A   1       9.150 -18.022  12.181  1.00  0.00     0.314 HD
HETATM   22  H15 PGL A   1       8.882 -19.658  11.931  1.00  0.00     0.314 HD
ENDBRANCH  19  20
ENDBRANCH  18  19
ENDBRANCH  17  18
ENDBRANCH  13  17
ENDBRANCH  12  13
ENDBRANCH   1  12
TORSDOF 13
ENDMDL
