MODEL 1
REMARK VINA RESULT:    -9.780      0.000      0.000
REMARK INTER + INTRA:         -14.769
REMARK INTER:                 -13.496
REMARK INTRA:                  -1.273
REMARK UNBOUND:                -1.273
REMARK  7 active torsions:
REMARK  status: ('A' for Active; 'I' for Inactive)
REMARK    1  A    between atoms: S_2  and  N_15 
REMARK    2  A    between atoms: O_4  and  C_23 
REMARK    3  A    between atoms: N_12  and  CA_19 
REMARK       I    between atoms: N_12  and  C_24 
REMARK    4  A    between atoms: N_13  and  CA_25 
REMARK       I    between atoms: N_13  and  C_27 
REMARK       I    between atoms: N_14  and  C_27 
REMARK    5  A    between atoms: CA_18  and  C_23 
REMARK    6  A    between atoms: C_24  and  CA_25 
REMARK    7  A    between atoms: CA_25  and  C_26 
ROOT
HETATM    1  CA  MEZ     1      13.625  19.313 -16.460  1.00  0.00     0.211 C 
ENDROOT
BRANCH   1   2
HETATM    2  N   MEZ     1      12.867  20.028 -17.460  1.00  0.00    -0.325 N 
HETATM    3  C   MEZ     1      11.577  19.660 -17.823  1.00  0.00     0.327 C 
HETATM    4  O   MEZ     1      10.981  18.702 -17.325  1.00  0.00    -0.247 OA
HETATM    5  N   MEZ     1      11.008  20.482 -18.824  1.00  0.00    -0.249 N 
HETATM    6  C   MEZ     1       9.693  20.158 -19.377  1.00  0.00     0.159 C 
HETATM    7  C   MEZ     1      11.546  21.605 -19.492  1.00  0.00     0.342 C 
HETATM    8  C   MEZ     1       9.262  21.359 -20.216  1.00  0.00     0.167 C 
HETATM    9  N   MEZ     1      10.552  22.052 -20.418  1.00  0.00    -0.225 N 
HETATM   10  O   MEZ     1      12.635  22.135 -19.331  1.00  0.00    -0.245 OA
HETATM   11  H   MEZ     1      13.291  20.841 -17.897  1.00  0.00     0.165 HD
BRANCH   9  12
HETATM   12  S   MEZ     1      10.581  23.504 -21.282  1.00  0.00     0.232 S 
HETATM   13  O   MEZ     1      10.326  24.614 -20.379  1.00  0.00    -0.206 OA
HETATM   14  O   MEZ     1      11.732  23.520 -22.170  1.00  0.00    -0.206 OA
HETATM   15  C   MEZ     1       9.132  23.291 -22.290  1.00  0.00     0.186 C 
ENDBRANCH   9  12
ENDBRANCH   1   2
BRANCH   1  16
HETATM   16  C   MEZ     1      13.940  17.926 -17.005  1.00  0.00     0.245 C 
HETATM   17  O   MEZ     1      14.449  17.737 -18.110  1.00  0.00    -0.271 OA
HETATM   18  N   MEZ     1      13.633  16.905 -16.103  1.00  0.00    -0.344 N 
HETATM   19  H   MEZ     1      13.222  17.170 -15.212  1.00  0.00     0.163 HD
BRANCH  18  20
HETATM   20  CA  MEZ     1      13.888  15.494 -16.383  1.00  0.00     0.199 A 
HETATM   21  C   MEZ     1      15.211  14.890 -15.891  1.00  0.00     0.160 A 
HETATM   22  S   MEZ     1      16.187  15.891 -14.710  1.00  0.00    -0.135 SA
HETATM   23  N   MEZ     1      14.416  14.020 -15.018  1.00  0.00    -0.219 NA
HETATM   24  C   MEZ     1      16.229  14.484 -13.491  1.00  0.00     0.029 C 
HETATM   25  CA  MEZ     1      14.839  13.827 -13.645  1.00  0.00     0.182 C 
HETATM   26  C   MEZ     1      16.424  15.050 -12.084  1.00  0.00     0.029 C 
HETATM   27  C   MEZ     1      17.408  13.574 -13.860  1.00  0.00     0.029 C 
HETATM   28  C   MEZ     1      13.205  14.517 -15.405  1.00  0.00     0.227 A 
HETATM   29  O   MEZ     1      12.078  14.332 -15.010  1.00  0.00    -0.277 OA
BRANCH  25  30
HETATM   30  C   MEZ     1      14.792  12.358 -13.372  1.00  0.00     0.160 C 
HETATM   31  OXT MEZ     1      14.793  11.850 -12.260  1.00  0.00    -0.649 OA
BRANCH  30  32
HETATM   32  O   MEZ     1      14.749  11.656 -14.531  1.00  0.00    -0.775 OA
HETATM   33  H   MEZ     1      14.155  12.073 -15.189  1.00  0.00     0.167 HD
ENDBRANCH  30  32
ENDBRANCH  25  30
ENDBRANCH  18  20
ENDBRANCH   1  16
BRANCH   1  34
HETATM   34  C   MEZ     1      14.878  20.057 -16.063  1.00  0.00    -0.026 A 
HETATM   35  C   MEZ     1      15.492  20.924 -16.968  1.00  0.00     0.010 A 
HETATM   36  C   MEZ     1      16.648  21.611 -16.600  1.00  0.00     0.001 A 
HETATM   37  C   MEZ     1      17.191  21.431 -15.328  1.00  0.00     0.000 A 
HETATM   38  C   MEZ     1      16.579  20.565 -14.424  1.00  0.00     0.001 A 
HETATM   39  C   MEZ     1      15.422  19.877 -14.791  1.00  0.00     0.010 A 
ENDBRANCH   1  34
TORSDOF 7
ENDMDL
