MODEL 1
REMARK VINA RESULT:    -6.754      0.000      0.000
REMARK INTER + INTRA:          -8.775
REMARK INTER:                  -8.531
REMARK INTRA:                  -0.245
REMARK UNBOUND:                -0.245
REMARK  6 active torsions:
REMARK  status: ('A' for Active; 'I' for Inactive)
REMARK    1  A    between atoms: C3_3  and  N1_4 
REMARK    2  A    between atoms: C5_6  and  C17_22 
REMARK    3  A    between atoms: C6_7  and  O1_8 
REMARK    4  A    between atoms: C10_12  and  N2_15 
REMARK    5  A    between atoms: C17_22  and  O2_23 
REMARK    6  A    between atoms: C17_22  and  O3_24 
ROOT
HETATM    1  N1  CIP     1      14.616   6.351   9.510  1.00  0.00     0.099 N 
HETATM    2  C4  CIP     1      15.697   5.826   8.627  1.00  0.00     0.285 C 
HETATM    3  C5  CIP     1      15.944   4.287   8.693  1.00  0.00     0.098 C 
HETATM    4  C6  CIP     1      14.622   3.454   8.592  1.00  0.00     0.135 C 
HETATM    5  C7  CIP     1      13.368   4.350   8.687  1.00  0.00     0.051 C 
HETATM    6  C8  CIP     1      12.048   3.541   8.801  1.00  0.00     0.049 C 
HETATM    7  C9  CIP     1      11.458   3.545  10.218  1.00  0.00     0.204 C 
HETATM    8  C10 CIP     1      11.208   4.992  10.777  1.00  0.00     0.258 C 
HETATM    9  C11 CIP     1      12.214   6.015  10.151  1.00  0.00     0.075 C 
HETATM   10  C12 CIP     1      13.570   5.350   9.851  1.00  0.00     0.232 C 
HETATM   11  F1  CIP     1      10.304   2.781  10.204  1.00  0.00    -0.247 F 
ENDROOT
BRANCH   8  12
HETATM   12  N2  CIP     1       9.770   5.384  10.633  1.00  0.00     0.099 N 
HETATM   13  C13 CIP     1       9.321   6.264  11.752  1.00  0.00     0.302 C 
HETATM   14  C14 CIP     1       9.092   7.720  11.319  1.00  0.00     0.299 C 
HETATM   15  N3  CIP     1       8.065   7.818  10.270  1.00  0.00     0.086 N 
HETATM   16  C15 CIP     1       8.057   6.670   9.345  1.00  0.00     0.299 C 
HETATM   17  H13 CIP     1       8.248   8.691   9.720  1.00  0.00     0.315 HD
HETATM   18  C16 CIP     1       9.409   5.944   9.303  1.00  0.00     0.302 C 
ENDBRANCH   8  12
BRANCH   1  19
HETATM   19  C3  CIP     1      15.181   6.975  10.724  1.00  0.00     0.223 A 
HETATM   20  C1  CIP     1      14.469   8.256  11.141  1.00  0.00     0.038 A 
HETATM   21  C2  CIP     1      15.833   8.332  10.488  1.00  0.00     0.038 A 
ENDBRANCH   1  19
BRANCH   4  22
HETATM   22  O1  CIP     1      14.599   2.696   7.406  1.00  0.00    -0.395 OA
HETATM   23  H4  CIP     1      13.762   2.161   7.409  1.00  0.00     0.210 HD
ENDBRANCH   4  22
BRANCH   3  24
HETATM   24  C17 CIP     1      16.837   3.831   9.877  1.00  0.00     0.262 C 
BRANCH  24  25
HETATM   25  O2  CIP     1      16.058   3.496  11.000  1.00  0.00    -0.371 OA
HETATM   26  H12 CIP     1      15.707   2.579  10.863  1.00  0.00     0.212 HD
ENDBRANCH  24  25
BRANCH  24  27
HETATM   27  O3  CIP     1      17.677   2.766   9.513  1.00  0.00    -0.371 OA
HETATM   28  H18 CIP     1      17.220   2.287   8.774  1.00  0.00     0.212 HD
ENDBRANCH  24  27
ENDBRANCH   3  24
TORSDOF 6
ENDMDL
