MODEL 1
REMARK VINA RESULT:    -7.137      0.000      0.000
REMARK INTER + INTRA:         -15.565
REMARK INTER:                 -11.935
REMARK INTRA:                  -3.630
REMARK UNBOUND:                -3.630
REMARK  16 active torsions:
REMARK  status: ('A' for Active; 'I' for Inactive)
REMARK    1  A    between atoms: C3_3  and  C20_33 
REMARK    2  A    between atoms: C5_7  and  N2_10 
REMARK    3  A    between atoms: C6_8  and  O1_9 
REMARK    4  A    between atoms: N2_10  and  C7_11 
REMARK    5  A    between atoms: C7_11  and  O2_12 
REMARK    6  A    between atoms: C7_11  and  C8_13 
REMARK    7  A    between atoms: C8_13  and  C9_14 
REMARK    8  A    between atoms: C8_13  and  N3_20 
REMARK    9  A    between atoms: N3_20  and  C15_21 
REMARK   10  A    between atoms: C15_21  and  O3_22 
REMARK   11  A    between atoms: C15_21  and  N4_23 
REMARK   12  A    between atoms: C18_27  and  O4_28 
REMARK   13  A    between atoms: S2_29  and  O5_30 
REMARK   14  A    between atoms: S2_29  and  O6_31 
REMARK   15  A    between atoms: C20_33  and  O7_34 
REMARK   16  A    between atoms: C20_33  and  O8_35 
ROOT
HETATM    1  C8  MEZ     1     -41.820  -5.979  35.014  1.00  0.00     0.288 C 
ENDROOT
BRANCH   1   2
HETATM    2  C7  MEZ     1     -42.564  -5.486  36.305  1.00  0.00     0.388 C 
BRANCH   2   3
HETATM    3  N2  MEZ     1     -42.877  -4.044  36.252  1.00  0.00     0.126 N 
HETATM    4  H7  MEZ     1     -42.048  -3.504  35.913  1.00  0.00     0.320 HD
BRANCH   3   5
HETATM    5  C5  MEZ     1     -43.438  -3.488  37.501  1.00  0.00     0.325 A 
HETATM    6  C4  MEZ     1     -43.361  -1.965  37.678  1.00  0.00     0.326 A 
HETATM    7  N1  MEZ     1     -44.809  -1.783  37.517  1.00  0.00     0.146 N 
HETATM    8  S1  MEZ     1     -42.413  -0.997  36.454  1.00  0.00    -0.119 SA
HETATM    9  C3  MEZ     1     -45.069  -0.997  36.288  1.00  0.00     0.299 C 
HETATM   10  C6  MEZ     1     -44.943  -3.257  37.415  1.00  0.00     0.395 A 
HETATM   11  C2  MEZ     1     -43.886  -0.010  36.092  1.00  0.00     0.039 C 
HETATM   12  C1  MEZ     1     -43.916   1.185  37.066  1.00  0.00     0.029 C 
HETATM   13  C21 MEZ     1     -43.768   0.500  34.643  1.00  0.00     0.029 C 
BRANCH   9  14
HETATM   14  C20 MEZ     1     -46.463  -0.329  36.413  1.00  0.00     0.289 C 
BRANCH  14  15
HETATM   15  O7  MEZ     1     -47.429  -1.298  36.732  1.00  0.00    -0.369 OA
HETATM   16  H18 MEZ     1     -48.274  -0.809  36.909  1.00  0.00     0.212 HD
ENDBRANCH  14  15
BRANCH  14  17
HETATM   17  O8  MEZ     1     -46.826   0.326  35.225  1.00  0.00    -0.369 OA
HETATM   18  H22 MEZ     1     -47.622   0.884  35.432  1.00  0.00     0.212 HD
ENDBRANCH  14  17
ENDBRANCH   9  14
BRANCH  10  19
HETATM   19  O1  MEZ     1     -45.514  -3.719  36.216  1.00  0.00    -0.366 OA
HETATM   20  H2  MEZ     1     -46.402  -3.282  36.144  1.00  0.00     0.212 HD
ENDBRANCH  10  19
ENDBRANCH   3   5
ENDBRANCH   2   3
BRANCH   2  21
HETATM   21  O2  MEZ     1     -43.728  -6.235  36.571  1.00  0.00    -0.366 OA
HETATM   22  H4  MEZ     1     -44.317  -5.696  37.160  1.00  0.00     0.212 HD
ENDBRANCH   2  21
ENDBRANCH   1   2
BRANCH   1  23
HETATM   23  C9  MEZ     1     -41.051  -7.330  35.165  1.00  0.00     0.023 C 
HETATM   24  C10 MEZ     1     -41.906  -8.587  34.898  1.00  0.00     0.007 C 
HETATM   25  C11 MEZ     1     -41.180  -9.866  35.366  1.00  0.00     0.000 C 
HETATM   26  C12 MEZ     1     -39.644  -9.779  35.242  1.00  0.00     0.000 C 
HETATM   27  C13 MEZ     1     -39.214  -8.824  34.121  1.00  0.00     0.000 C 
HETATM   28  C14 MEZ     1     -39.718  -7.386  34.367  1.00  0.00     0.007 C 
ENDBRANCH   1  23
BRANCH   1  29
HETATM   29  N3  MEZ     1     -42.759  -6.117  33.873  1.00  0.00     0.152 N 
HETATM   30  H14 MEZ     1     -43.715  -5.745  34.079  1.00  0.00     0.322 HD
BRANCH  29  31
HETATM   31  C15 MEZ     1     -42.260  -5.493  32.636  1.00  0.00     0.600 C 
BRANCH  31  32
HETATM   32  O3  MEZ     1     -41.443  -4.395  32.964  1.00  0.00    -0.345 OA
HETATM   33  H12 MEZ     1     -40.665  -4.745  33.470  1.00  0.00     0.214 HD
ENDBRANCH  31  32
BRANCH  31  34
HETATM   34  N4  MEZ     1     -43.407  -5.015  31.837  1.00  0.00     0.198 N 
HETATM   35  C16 MEZ     1     -43.023  -4.069  30.796  1.00  0.00     0.304 C 
HETATM   36  C17 MEZ     1     -44.258  -3.229  30.549  1.00  0.00     0.168 C 
HETATM   37  N5  MEZ     1     -45.134  -3.400  31.701  1.00  0.00    -0.280 N 
HETATM   38  C18 MEZ     1     -44.446  -4.313  32.607  1.00  0.00     0.480 C 
HETATM   39  S2  MEZ     1     -46.232  -2.495  31.564  1.00  0.00     0.045 S 
HETATM   40  C19 MEZ     1     -47.646  -4.336  31.289  1.00  0.00     0.150 C 
BRANCH  38  41
HETATM   41  O4  MEZ     1     -43.900  -3.560  33.664  1.00  0.00    -0.352 OA
HETATM   42  H14 MEZ     1     -43.160  -4.096  34.050  1.00  0.00     0.214 HD
ENDBRANCH  38  41
BRANCH  39  43
HETATM   43  O5  MEZ     1     -47.190  -2.601  33.998  1.00  0.00    -0.312 OA
HETATM   44  H15 MEZ     1     -46.422  -2.575  34.622  1.00  0.00     0.230 HD
ENDBRANCH  39  43
BRANCH  39  45
HETATM   45  O6  MEZ     1     -46.008  -1.152  32.695  1.00  0.00    -0.312 OA
HETATM   46  H16 MEZ     1     -46.671  -0.985  33.411  1.00  0.00     0.230 HD
ENDBRANCH  39  45
ENDBRANCH  31  34
ENDBRANCH  29  31
ENDBRANCH   1  29
TORSDOF 16
ENDMDL
