MODEL 1
REMARK VINA RESULT:    -6.101      0.000      0.000
REMARK INTER + INTRA:          -7.943
REMARK INTER:                  -7.349
REMARK INTRA:                  -0.594
REMARK UNBOUND:                -0.594
REMARK  5 active torsions:
REMARK  status: ('A' for Active; 'I' for Inactive)
REMARK    1  A    between atoms: C2_2  and  N1_3 
REMARK    2  A    between atoms: C4_5  and  C12_15 
REMARK    3  A    between atoms: C5_6  and  O1_7 
REMARK    4  A    between atoms: C12_15  and  O2_16 
REMARK    5  A    between atoms: C12_15  and  O3_17 
ROOT
HETATM    1  N1  NDX     1     -31.508 -14.458  20.798  1.00  0.00     0.122 N 
HETATM    2  C3  NDX     1     -30.205 -13.838  20.484  1.00  0.00     0.287 C 
HETATM    3  C4  NDX     1     -30.416 -12.456  19.842  1.00  0.00     0.098 C 
HETATM    4  C5  NDX     1     -31.241 -12.620  18.541  1.00  0.00     0.136 C 
HETATM    5  C6  NDX     1     -32.566 -13.373  18.817  1.00  0.00     0.079 C 
HETATM    6  C7  NDX     1     -32.311 -14.704  19.572  1.00  0.00     0.460 C 
HETATM    7  N2  NDX     1     -33.601 -15.338  19.925  1.00  0.00     0.122 N 
HETATM    8  C8  NDX     1     -34.632 -15.323  18.861  1.00  0.00     0.219 C 
HETATM    9  C9  NDX     1     -34.063 -14.977  17.473  1.00  0.00     0.036 C 
HETATM   10  C10 NDX     1     -33.348 -13.619  17.500  1.00  0.00     0.013 C 
HETATM   11  C11 NDX     1     -35.328 -16.684  18.826  1.00  0.00     0.042 C 
HETATM   12  H7  NDX     1     -34.000 -14.845  20.760  1.00  0.00     0.319 HD
ENDROOT
BRANCH   3  13
HETATM   13  C12 NDX     1     -29.055 -11.744  19.619  1.00  0.00     0.262 C 
BRANCH  13  14
HETATM   14  O2  NDX     1     -28.543 -12.010  18.336  1.00  0.00    -0.371 OA
HETATM   15  H12 NDX     1     -27.812 -12.674  18.435  1.00  0.00     0.212 HD
ENDBRANCH  13  14
BRANCH  13  16
HETATM   16  O3  NDX     1     -29.167 -10.356  19.819  1.00  0.00    -0.371 OA
HETATM   17  H12 NDX     1     -29.920 -10.217  20.451  1.00  0.00     0.212 HD
ENDBRANCH  13  16
ENDBRANCH   3  13
BRANCH   4  18
HETATM   18  O1  NDX     1     -31.501 -11.373  17.943  1.00  0.00    -0.394 OA
HETATM   19  H4  NDX     1     -32.337 -11.017  18.344  1.00  0.00     0.210 HD
ENDBRANCH   4  18
BRANCH   1  20
HETATM   20  C2  NDX     1     -31.351 -15.650  21.672  1.00  0.00     0.271 C 
HETATM   21  C1  NDX     1     -30.155 -16.545  21.319  1.00  0.00     0.037 C 
ENDBRANCH   1  20
TORSDOF 5
ENDMDL
