MODEL 1
REMARK VINA RESULT:    -7.097      0.000      0.000
REMARK INTER + INTRA:          -9.627
REMARK INTER:                  -8.964
REMARK INTRA:                  -0.664
REMARK UNBOUND:                -0.664
REMARK  6 active torsions:
REMARK  status: ('A' for Active; 'I' for Inactive)
REMARK    1  A    between atoms: C2_2  and  N1_3 
REMARK    2  A    between atoms: C4_5  and  C16_21 
REMARK    3  A    between atoms: C5_6  and  O1_7 
REMARK    4  A    between atoms: C9_11  and  N2_14 
REMARK    5  A    between atoms: C16_21  and  O2_22 
REMARK    6  A    between atoms: C16_21  and  O3_23 
ROOT
HETATM    1  N1  NOR     1      11.718   5.460   7.753  1.00  0.00     0.093 N 
HETATM    2  C3  NOR     1      10.669   5.245   8.787  1.00  0.00     0.284 C 
HETATM    3  C4  NOR     1      10.770   3.894   9.554  1.00  0.00     0.098 C 
HETATM    4  C5  NOR     1      12.213   3.580  10.074  1.00  0.00     0.135 C 
HETATM    5  C6  NOR     1      13.244   4.594   9.542  1.00  0.00     0.051 C 
HETATM    6  C7  NOR     1      14.709   4.207   9.900  1.00  0.00     0.049 C 
HETATM    7  C8  NOR     1      15.554   3.778   8.686  1.00  0.00     0.204 C 
HETATM    8  C9  NOR     1      15.496   4.785   7.495  1.00  0.00     0.258 C 
HETATM    9  C10 NOR     1      14.181   5.615   7.456  1.00  0.00     0.075 C 
HETATM   10  C11 NOR     1      13.014   4.789   8.024  1.00  0.00     0.231 C 
HETATM   11  F1  NOR     1      16.862   3.546   9.079  1.00  0.00    -0.247 F 
ENDROOT
BRANCH   8  12
HETATM   12  N2  NOR     1      16.737   5.599   7.368  1.00  0.00     0.099 N 
HETATM   13  C12 NOR     1      17.115   5.824   5.959  1.00  0.00     0.302 C 
HETATM   14  C13 NOR     1      18.506   6.466   5.890  1.00  0.00     0.299 C 
HETATM   15  N3  NOR     1      18.547   7.725   6.646  1.00  0.00     0.086 N 
HETATM   16  C14 NOR     1      18.134   7.510   8.039  1.00  0.00     0.299 C 
HETATM   17  H13 NOR     1      17.889   8.407   6.200  1.00  0.00     0.315 HD
HETATM   18  C15 NOR     1      16.739   6.877   8.111  1.00  0.00     0.302 C 
ENDBRANCH   8  12
BRANCH   1  19
HETATM   19  C2  NOR     1      11.215   5.222   6.381  1.00  0.00     0.268 C 
HETATM   20  C1  NOR     1       9.778   5.717   6.267  1.00  0.00     0.037 C 
ENDBRANCH   1  19
BRANCH   4  21
HETATM   21  O1  NOR     1      12.231   3.606  11.479  1.00  0.00    -0.395 OA
HETATM   22  H4  NOR     1      11.864   2.735  11.785  1.00  0.00     0.210 HD
ENDBRANCH   4  21
BRANCH   3  23
HETATM   23  C16 NOR     1      10.148   2.713   8.765  1.00  0.00     0.262 C 
BRANCH  23  24
HETATM   24  O2  NOR     1       9.558   1.801   9.656  1.00  0.00    -0.371 OA
HETATM   25  H12 NOR     1       9.467   0.940   9.169  1.00  0.00     0.212 HD
ENDBRANCH  23  24
BRANCH  23  26
HETATM   26  O3  NOR     1      11.128   2.047   8.017  1.00  0.00    -0.371 OA
HETATM   27  H18 NOR     1      11.598   1.440   8.646  1.00  0.00     0.212 HD
ENDBRANCH  23  26
ENDBRANCH   3  23
TORSDOF 6
ENDMDL
