MODEL 1
REMARK VINA RESULT:    -7.306      0.000      0.000
REMARK INTER + INTRA:         -11.705
REMARK INTER:                 -10.082
REMARK INTRA:                  -1.623
REMARK UNBOUND:                -1.623
REMARK  7 active torsions:
REMARK  status: ('A' for Active; 'I' for Inactive)
REMARK    1  A    between atoms: S_2  and  N_15 
REMARK    2  A    between atoms: O_4  and  C_23 
REMARK    3  A    between atoms: N_12  and  CA_19 
REMARK       I    between atoms: N_12  and  C_24 
REMARK    4  A    between atoms: N_13  and  CA_25 
REMARK       I    between atoms: N_13  and  C_27 
REMARK       I    between atoms: N_14  and  C_27 
REMARK    5  A    between atoms: CA_18  and  C_23 
REMARK    6  A    between atoms: C_24  and  CA_25 
REMARK    7  A    between atoms: CA_25  and  C_26 
ROOT
HETATM    1  CA  MEZ     1     -31.123  -7.655 -10.669  1.00  0.00     0.211 C 
ENDROOT
BRANCH   1   2
HETATM    2  N   MEZ     1     -30.328  -8.098  -9.547  1.00  0.00    -0.325 N 
HETATM    3  C   MEZ     1     -30.411  -9.389  -9.039  1.00  0.00     0.327 C 
HETATM    4  O   MEZ     1     -31.161 -10.252  -9.500  1.00  0.00    -0.247 OA
HETATM    5  N   MEZ     1     -29.557  -9.624  -7.935  1.00  0.00    -0.249 N 
HETATM    6  C   MEZ     1     -29.606 -10.906  -7.233  1.00  0.00     0.159 C 
HETATM    7  C   MEZ     1     -28.647  -8.757  -7.290  1.00  0.00     0.342 C 
HETATM    8  C   MEZ     1     -28.405 -10.936  -6.290  1.00  0.00     0.167 C 
HETATM    9  N   MEZ     1     -28.051  -9.502  -6.223  1.00  0.00    -0.225 N 
HETATM   10  O   MEZ     1     -28.376  -7.598  -7.564  1.00  0.00    -0.245 OA
HETATM   11  H   MEZ     1     -29.674  -7.443  -9.131  1.00  0.00     0.165 HD
BRANCH   9  12
HETATM   12  S   MEZ     1     -26.718  -9.023  -5.303  1.00  0.00     0.232 S 
HETATM   13  O   MEZ     1     -26.056 -10.196  -4.756  1.00  0.00    -0.206 OA
HETATM   14  O   MEZ     1     -25.961  -8.014  -6.027  1.00  0.00    -0.206 OA
HETATM   15  C   MEZ     1     -27.549  -8.205  -3.961  1.00  0.00     0.186 C 
ENDBRANCH   9  12
ENDBRANCH   1   2
BRANCH   1  16
HETATM   16  C   MEZ     1     -31.653  -6.262 -10.355  1.00  0.00     0.245 C 
HETATM   17  O   MEZ     1     -32.132  -5.516 -11.209  1.00  0.00    -0.271 OA
HETATM   18  N   MEZ     1     -31.577  -5.945  -8.997  1.00  0.00    -0.344 N 
HETATM   19  H   MEZ     1     -31.170  -6.637  -8.373  1.00  0.00     0.163 HD
BRANCH  18  20
HETATM   20  CA  MEZ     1     -32.065  -4.683  -8.447  1.00  0.00     0.199 A 
HETATM   21  C   MEZ     1     -31.943  -4.463  -6.932  1.00  0.00     0.160 A 
HETATM   22  S   MEZ     1     -30.896  -5.644  -6.008  1.00  0.00    -0.135 SA
HETATM   23  N   MEZ     1     -31.025  -3.360  -7.229  1.00  0.00    -0.219 NA
HETATM   24  C   MEZ     1     -29.884  -4.252  -5.297  1.00  0.00     0.029 C 
HETATM   25  CA  MEZ     1     -29.808  -3.230  -6.453  1.00  0.00     0.182 C 
HETATM   26  C   MEZ     1     -28.497  -4.781  -4.930  1.00  0.00     0.029 C 
HETATM   27  C   MEZ     1     -30.601  -3.740  -4.041  1.00  0.00     0.029 C 
HETATM   28  C   MEZ     1     -31.082  -3.504  -8.585  1.00  0.00     0.227 A 
HETATM   29  O   MEZ     1     -30.476  -2.982  -9.492  1.00  0.00    -0.277 OA
BRANCH  25  30
HETATM   30  C   MEZ     1     -29.702  -1.798  -6.035  1.00  0.00     0.160 C 
HETATM   31  OXT MEZ     1     -30.612  -0.983  -6.080  1.00  0.00    -0.649 OA
BRANCH  30  32
HETATM   32  O   MEZ     1     -28.450  -1.520  -5.595  1.00  0.00    -0.775 OA
HETATM   33  H   MEZ     1     -28.171  -0.611  -5.836  1.00  0.00     0.167 HD
ENDBRANCH  30  32
ENDBRANCH  25  30
ENDBRANCH  18  20
ENDBRANCH   1  16
BRANCH   1  34
HETATM   34  C   MEZ     1     -30.339  -7.679 -11.960  1.00  0.00    -0.026 A 
HETATM   35  C   MEZ     1     -30.958  -8.082 -13.144  1.00  0.00     0.010 A 
HETATM   36  C   MEZ     1     -30.234  -8.104 -14.336  1.00  0.00     0.001 A 
HETATM   37  C   MEZ     1     -28.893  -7.724 -14.345  1.00  0.00     0.000 A 
HETATM   38  C   MEZ     1     -28.274  -7.322 -13.162  1.00  0.00     0.001 A 
HETATM   39  C   MEZ     1     -28.998  -7.299 -11.969  1.00  0.00     0.010 A 
ENDBRANCH   1  34
TORSDOF 7
ENDMDL
