MODEL 1
REMARK VINA RESULT:      -6.3      0.000      0.000
REMARK  12 active torsions:
REMARK  status: ('A' for Active; 'I' for Inactive)
REMARK    1  A    between atoms: N1_2  and  C31_40 
REMARK    2  A    between atoms: C2_4  and  C3_7 
REMARK       I    between atoms: N2_5  and  C3_7 
REMARK    3  A    between atoms: N2_5  and  C4_10 
REMARK    4  A    between atoms: N3_8  and  C10_19 
REMARK       I    between atoms: N4_11  and  C21_30 
REMARK    5  A    between atoms: N4_11  and  C22_31 
REMARK    6  A    between atoms: C10_19  and  C11_20 
REMARK    7  A    between atoms: C11_20  and  C12_21 
REMARK    8  A    between atoms: C12_21  and  C13_22 
REMARK    9  A    between atoms: C13_22  and  C14_23 
REMARK   10  A    between atoms: C13_22  and  C21_30 
REMARK   11  A    between atoms: C14_23  and  C15_24 
REMARK   12  A    between atoms: C31_40  and  C32_41 
ROOT
HETATM    1  O2  MK1 B 902      11.584  43.510  27.286  1.00 15.87    -0.221 OA
HETATM    2  C11 MK1 B 902      12.260  42.726  26.349  1.00 21.68     0.174 C 
ENDROOT
BRANCH   2   3
HETATM    3  C10 MK1 B 902      13.072  43.881  25.761  1.00 20.86     0.131 C 
BRANCH   3   4
HETATM    4  N3  MK1 B 902      14.419  43.520  25.367  1.00 28.91    -0.357 N 
HETATM    5  C2  MK1 B 902      15.237  44.563  24.655  1.00 27.27     0.192 C 
HETATM    6  C1  MK1 B 902      16.573  43.860  24.512  1.00 30.30     0.282 C 
HETATM    7  N1  MK1 B 902      17.318  43.366  25.701  1.00 28.25     0.146 N 
HETATM    8  C9  MK1 B 902      16.521  42.403  26.320  1.00 27.47     0.274 C 
HETATM    9  C8  MK1 B 902      15.049  42.733  26.457  1.00 26.24     0.133 C 
BRANCH   5  10
HETATM   10  C3  MK1 B 902      14.720  44.881  23.278  1.00 28.85     0.273 C 
HETATM   11  O1  MK1 B 902      15.377  44.588  22.288  1.00 29.59    -0.269 OA
HETATM   12  N2  MK1 B 902      13.554  45.492  23.204  1.00 22.29    -0.240 NA
BRANCH  12  13
HETATM   13  C4  MK1 B 902      12.775  45.861  22.066  1.00 23.47     0.088 C 
HETATM   14  C5  MK1 B 902      12.290  44.554  21.410  1.00 27.66     0.025 C 
HETATM   15  C6  MK1 B 902      13.472  46.631  21.149  1.00 21.71     0.025 C 
HETATM   16  C7  MK1 B 902      11.543  46.580  22.407  1.00 22.75     0.025 C 
ENDBRANCH  12  13
ENDBRANCH   5  10
BRANCH   7  17
HETATM   17  C31 MK1 B 902      18.717  42.970  25.501  1.00 36.25     0.278 C 
BRANCH  17  18
HETATM   18  C32 MK1 B 902      19.129  42.045  24.349  1.00 42.75     0.030 A 
HETATM   19  C33 MK1 B 902      18.775  40.690  24.293  1.00 47.41     0.097 A 
HETATM   20  N5  MK1 B 902      19.097  39.788  23.265  1.00 51.38    -0.243 NA
HETATM   21  C34 MK1 B 902      19.836  40.420  22.266  1.00 50.60     0.099 A 
HETATM   22  C35 MK1 B 902      20.222  41.764  22.261  1.00 49.34     0.020 A 
HETATM   23  C36 MK1 B 902      19.861  42.594  23.319  1.00 44.71     0.001 A 
ENDBRANCH  17  18
ENDBRANCH   7  17
ENDBRANCH   3   4
ENDBRANCH   2   3
BRANCH   2  24
HETATM   24  C12 MK1 B 902      11.215  41.916  25.562  1.00 21.49     0.045 C 
BRANCH  24  25
HETATM   25  C13 MK1 B 902      10.935  42.226  24.085  1.00 26.89     0.088 C 
BRANCH  25  26
HETATM   26  C14 MK1 B 902      11.115  40.991  23.184  1.00 28.67     0.036 C 
BRANCH  26  27
HETATM   27  C15 MK1 B 902      12.514  40.496  23.175  1.00 26.89    -0.022 A 
HETATM   28  C16 MK1 B 902      12.851  39.184  23.517  1.00 29.22    -0.004 A 
HETATM   29  C17 MK1 B 902      14.175  38.775  23.529  1.00 29.22    -0.000 A 
HETATM   30  C18 MK1 B 902      15.168  39.699  23.194  1.00 30.97    -0.000 A 
HETATM   31  C19 MK1 B 902      14.834  41.012  22.843  1.00 29.25    -0.000 A 
HETATM   32  C20 MK1 B 902      13.497  41.409  22.835  1.00 29.96    -0.004 A 
ENDBRANCH  26  27
ENDBRANCH  25  26
BRANCH  25  33
HETATM   33  C21 MK1 B 902       9.534  42.790  23.874  1.00 29.35     0.252 C 
HETATM   34  O3  MK1 B 902       9.371  43.985  23.584  1.00 32.66    -0.271 OA
HETATM   35  N4  MK1 B 902       8.537  41.952  24.142  1.00 31.19    -0.233 NA
BRANCH  35  36
HETATM   36  C22 MK1 B 902       7.172  42.423  24.310  1.00 29.22     0.159 C 
HETATM   37  C23 MK1 B 902       6.802  42.587  25.774  1.00 28.82     0.183 C 
HETATM   38  O4  MK1 B 902       7.461  41.605  26.561  1.00 28.32    -0.221 OA
HETATM   39  C24 MK1 B 902       5.294  42.496  25.816  1.00 32.05     0.061 C 
HETATM   40  C25 MK1 B 902       4.786  41.586  24.724  1.00 31.29    -0.022 A 
HETATM   41  C26 MK1 B 902       3.646  40.864  24.459  1.00 32.00    -0.004 A 
HETATM   42  C30 MK1 B 902       6.015  41.539  23.772  1.00 31.86    -0.001 A 
HETATM   43  C27 MK1 B 902       3.609  40.089  23.294  1.00 28.00    -0.000 A 
HETATM   44  C28 MK1 B 902       4.706  40.050  22.421  1.00 29.01    -0.000 A 
HETATM   45  C29 MK1 B 902       5.875  40.758  22.669  1.00 27.70    -0.003 A 
ENDBRANCH  35  36
ENDBRANCH  25  33
ENDBRANCH  24  25
ENDBRANCH   2  24
TORSDOF 12
ENDMDL
