MODEL 1
REMARK VINA RESULT:      -7.7      0.000      0.000
REMARK  12 active torsions:
REMARK  status: ('A' for Active; 'I' for Inactive)
REMARK    1  A    between atoms: N1_2  and  C31_40 
REMARK    2  A    between atoms: C2_4  and  C3_7 
REMARK       I    between atoms: N2_5  and  C3_7 
REMARK    3  A    between atoms: N2_5  and  C4_10 
REMARK    4  A    between atoms: N3_8  and  C10_19 
REMARK       I    between atoms: N4_11  and  C21_30 
REMARK    5  A    between atoms: N4_11  and  C22_31 
REMARK    6  A    between atoms: C10_19  and  C11_20 
REMARK    7  A    between atoms: C11_20  and  C12_21 
REMARK    8  A    between atoms: C12_21  and  C13_22 
REMARK    9  A    between atoms: C13_22  and  C14_23 
REMARK   10  A    between atoms: C13_22  and  C21_30 
REMARK   11  A    between atoms: C14_23  and  C15_24 
REMARK   12  A    between atoms: C31_40  and  C32_41 
ROOT
HETATM    1  O2  MK1 B 902      20.336  15.681   5.577  1.00 15.87    -0.221 OA
HETATM    2  C11 MK1 B 902      19.782  15.774   6.855  1.00 21.68     0.174 C 
ENDROOT
BRANCH   2   3
HETATM    3  C10 MK1 B 902      19.075  14.419   6.797  1.00 20.86     0.131 C 
BRANCH   3   4
HETATM    4  N3  MK1 B 902      19.530  13.469   7.792  1.00 28.91    -0.357 N 
HETATM    5  C2  MK1 B 902      18.736  13.362   9.066  1.00 27.27     0.192 C 
HETATM    6  C1  MK1 B 902      19.446  12.226   9.776  1.00 30.30     0.282 C 
HETATM    7  N1  MK1 B 902      19.573  10.882   9.151  1.00 28.25     0.146 N 
HETATM    8  C9  MK1 B 902      20.318  11.036   7.982  1.00 27.47     0.274 C 
HETATM    9  C8  MK1 B 902      19.967  12.224   7.111  1.00 26.24     0.133 C 
BRANCH   5  10
HETATM   10  C3  MK1 B 902      18.831  14.592   9.927  1.00 28.85     0.273 C 
HETATM   11  O1  MK1 B 902      19.915  15.128  10.120  1.00 29.59    -0.269 OA
HETATM   12  N2  MK1 B 902      17.710  15.039  10.458  1.00 22.29    -0.240 NA
BRANCH  12  13
HETATM   13  C4  MK1 B 902      17.461  16.200  11.249  1.00 23.47     0.088 C 
HETATM   14  C5  MK1 B 902      18.079  15.940  12.636  1.00 27.66     0.025 C 
HETATM   15  C6  MK1 B 902      16.115  16.505  11.372  1.00 21.71     0.025 C 
HETATM   16  C7  MK1 B 902      18.147  17.401  10.761  1.00 22.75     0.025 C 
ENDBRANCH  12  13
ENDBRANCH   5  10
BRANCH   7  17
HETATM   17  C31 MK1 B 902      20.006   9.777  10.015  1.00 36.25     0.278 C 
BRANCH  17  18
HETATM   18  C32 MK1 B 902      19.268   9.445  11.317  1.00 42.75     0.030 A 
HETATM   19  C33 MK1 B 902      19.885   9.478  12.576  1.00 47.41     0.097 A 
HETATM   20  N5  MK1 B 902      19.272   9.207  13.810  1.00 51.38    -0.243 NA
HETATM   21  C34 MK1 B 902      17.925   8.890  13.634  1.00 50.60     0.099 A 
HETATM   22  C35 MK1 B 902      17.250   8.838  12.411  1.00 49.34     0.020 A 
HETATM   23  C36 MK1 B 902      17.931   9.122  11.230  1.00 44.71     0.001 A 
ENDBRANCH  17  18
ENDBRANCH   7  17
ENDBRANCH   3   4
ENDBRANCH   2   3
BRANCH   2  24
HETATM   24  C12 MK1 B 902      19.053  17.125   6.962  1.00 21.49     0.045 C 
BRANCH  24  25
HETATM   25  C13 MK1 B 902      18.497  17.815   5.708  1.00 26.89     0.088 C 
BRANCH  25  26
HETATM   26  C14 MK1 B 902      17.209  17.144   5.196  1.00 28.67     0.036 C 
BRANCH  26  27
HETATM   27  C15 MK1 B 902      16.662  17.812   3.989  1.00 26.89    -0.022 A 
HETATM   28  C16 MK1 B 902      15.465  18.530   4.004  1.00 29.22    -0.004 A 
HETATM   29  C17 MK1 B 902      14.973  19.109   2.844  1.00 29.22    -0.000 A 
HETATM   30  C18 MK1 B 902      15.697  18.959   1.658  1.00 30.97    -0.000 A 
HETATM   31  C19 MK1 B 902      16.902  18.246   1.641  1.00 29.25    -0.000 A 
HETATM   32  C20 MK1 B 902      17.384  17.671   2.816  1.00 29.96    -0.004 A 
ENDBRANCH  26  27
ENDBRANCH  25  26
BRANCH  25  33
HETATM   33  C21 MK1 B 902      18.221  19.295   5.943  1.00 29.35     0.252 C 
HETATM   34  O3  MK1 B 902      18.894  20.163   5.366  1.00 32.66    -0.271 OA
HETATM   35  N4  MK1 B 902      17.317  19.564   6.881  1.00 31.19    -0.233 NA
BRANCH  35  36
HETATM   36  C22 MK1 B 902      17.183  20.895   7.449  1.00 29.22     0.159 C 
HETATM   37  C23 MK1 B 902      17.047  20.857   8.962  1.00 28.82     0.183 C 
HETATM   38  O4  MK1 B 902      16.343  19.691   9.364  1.00 28.32    -0.221 OA
HETATM   39  C24 MK1 B 902      16.355  22.149   9.332  1.00 32.05     0.061 C 
HETATM   40  C25 MK1 B 902      15.425  22.588   8.228  1.00 31.29    -0.022 A 
HETATM   41  C26 MK1 B 902      14.335  23.416   8.094  1.00 32.00    -0.004 A 
HETATM   42  C30 MK1 B 902      15.964  21.758   7.028  1.00 31.86    -0.001 A 
HETATM   43  C27 MK1 B 902      13.723  23.507   6.839  1.00 28.00    -0.000 A 
HETATM   44  C28 MK1 B 902      14.209  22.774   5.746  1.00 29.01    -0.000 A 
HETATM   45  C29 MK1 B 902      15.299  21.921   5.854  1.00 27.70    -0.003 A 
ENDBRANCH  35  36
ENDBRANCH  25  33
ENDBRANCH  24  25
ENDBRANCH   2  24
TORSDOF 12
ENDMDL
