MODEL 1
REMARK VINA RESULT:      -7.0      0.000      0.000
REMARK  12 active torsions:
REMARK  status: ('A' for Active; 'I' for Inactive)
REMARK    1  A    between atoms: N1_2  and  C31_40 
REMARK    2  A    between atoms: C2_4  and  C3_7 
REMARK       I    between atoms: N2_5  and  C3_7 
REMARK    3  A    between atoms: N2_5  and  C4_10 
REMARK    4  A    between atoms: N3_8  and  C10_19 
REMARK       I    between atoms: N4_11  and  C21_30 
REMARK    5  A    between atoms: N4_11  and  C22_31 
REMARK    6  A    between atoms: C10_19  and  C11_20 
REMARK    7  A    between atoms: C11_20  and  C12_21 
REMARK    8  A    between atoms: C12_21  and  C13_22 
REMARK    9  A    between atoms: C13_22  and  C14_23 
REMARK   10  A    between atoms: C13_22  and  C21_30 
REMARK   11  A    between atoms: C14_23  and  C15_24 
REMARK   12  A    between atoms: C31_40  and  C32_41 
ROOT
HETATM    1  O2  MK1 B 902      20.717   9.744 -17.777  1.00 15.87    -0.221 OA
HETATM    2  C11 MK1 B 902      21.124  11.062 -17.563  1.00 21.68     0.174 C 
ENDROOT
BRANCH   2   3
HETATM    3  C10 MK1 B 902      21.397  10.882 -16.069  1.00 20.86     0.131 C 
BRANCH   3   4
HETATM    4  N3  MK1 B 902      21.866   9.560 -15.707  1.00 28.91    -0.357 N 
HETATM    5  C2  MK1 B 902      23.347   9.377 -15.512  1.00 27.27     0.192 C 
HETATM    6  C1  MK1 B 902      23.420   7.934 -15.053  1.00 30.30     0.282 C 
HETATM    7  N1  MK1 B 902      22.695   7.470 -13.840  1.00 28.25     0.146 N 
HETATM    8  C9  MK1 B 902      21.333   7.656 -14.073  1.00 27.47     0.274 C 
HETATM    9  C8  MK1 B 902      20.933   8.968 -14.715  1.00 26.24     0.133 C 
BRANCH   5  10
HETATM   10  C3  MK1 B 902      24.131   9.508 -16.789  1.00 28.85     0.273 C 
HETATM   11  O1  MK1 B 902      23.955   8.717 -17.707  1.00 29.59    -0.269 OA
HETATM   12  N2  MK1 B 902      25.007  10.491 -16.855  1.00 22.29    -0.240 NA
BRANCH  12  13
HETATM   13  C4  MK1 B 902      25.841  10.916 -17.933  1.00 23.47     0.088 C 
HETATM   14  C5  MK1 B 902      24.908  11.384 -19.065  1.00 27.66     0.025 C 
HETATM   15  C6  MK1 B 902      26.694   9.925 -18.391  1.00 21.71     0.025 C 
HETATM   16  C7  MK1 B 902      26.655  12.094 -17.616  1.00 22.75     0.025 C 
ENDBRANCH  12  13
ENDBRANCH   5  10
BRANCH   7  17
HETATM   17  C31 MK1 B 902      23.052   6.150 -13.306  1.00 36.25     0.278 C 
BRANCH  17  18
HETATM   18  C32 MK1 B 902      22.881   5.816 -11.820  1.00 42.75     0.030 A 
HETATM   19  C33 MK1 B 902      22.458   6.756 -10.869  1.00 47.41     0.097 A 
HETATM   20  N5  MK1 B 902      22.260   6.520  -9.498  1.00 51.38    -0.243 NA
HETATM   21  C34 MK1 B 902      22.541   5.193  -9.179  1.00 50.60     0.099 A 
HETATM   22  C35 MK1 B 902      22.966   4.208 -10.075  1.00 49.34     0.020 A 
HETATM   23  C36 MK1 B 902      23.138   4.522 -11.421  1.00 44.71     0.001 A 
ENDBRANCH  17  18
ENDBRANCH   7  17
ENDBRANCH   3   4
ENDBRANCH   2   3
BRANCH   2  24
HETATM   24  C12 MK1 B 902      20.041  11.993 -18.138  1.00 21.49     0.045 C 
BRANCH  24  25
HETATM   25  C13 MK1 B 902      20.303  13.499 -18.286  1.00 26.89     0.088 C 
BRANCH  25  26
HETATM   26  C14 MK1 B 902      21.230  13.816 -19.473  1.00 28.67     0.036 C 
BRANCH  26  27
HETATM   27  C15 MK1 B 902      22.559  14.316 -19.038  1.00 26.89    -0.022 A 
HETATM   28  C16 MK1 B 902      23.018  14.186 -17.726  1.00 29.22    -0.004 A 
HETATM   29  C17 MK1 B 902      24.251  14.701 -17.355  1.00 29.22    -0.000 A 
HETATM   30  C18 MK1 B 902      25.026  15.352 -18.318  1.00 30.97    -0.000 A 
HETATM   31  C19 MK1 B 902      24.572  15.476 -19.637  1.00 29.25    -0.000 A 
HETATM   32  C20 MK1 B 902      23.330  14.954 -19.994  1.00 29.96    -0.004 A 
ENDBRANCH  26  27
ENDBRANCH  25  26
BRANCH  25  33
HETATM   33  C21 MK1 B 902      19.011  14.292 -18.444  1.00 29.35     0.252 C 
HETATM   34  O3  MK1 B 902      17.913  13.761 -18.223  1.00 32.66    -0.271 OA
HETATM   35  N4  MK1 B 902      19.153  15.517 -18.943  1.00 31.19    -0.233 NA
BRANCH  35  36
HETATM   36  C22 MK1 B 902      18.017  16.265 -19.458  1.00 29.22     0.159 C 
HETATM   37  C23 MK1 B 902      17.840  16.072 -20.954  1.00 28.82     0.183 C 
HETATM   38  O4  MK1 B 902      19.103  15.913 -21.583  1.00 28.32    -0.221 OA
HETATM   39  C24 MK1 B 902      17.069  17.285 -21.423  1.00 32.05     0.061 C 
HETATM   40  C25 MK1 B 902      17.405  18.487 -20.575  1.00 31.29    -0.022 A 
HETATM   41  C26 MK1 B 902      17.324  19.856 -20.683  1.00 32.00    -0.004 A 
HETATM   42  C30 MK1 B 902      18.028  17.810 -19.321  1.00 31.86    -0.001 A 
HETATM   43  C27 MK1 B 902      17.806  20.634 -19.626  1.00 28.00    -0.000 A 
HETATM   44  C28 MK1 B 902      18.358  20.034 -18.484  1.00 29.01    -0.000 A 
HETATM   45  C29 MK1 B 902      18.464  18.657 -18.351  1.00 27.70    -0.003 A 
ENDBRANCH  35  36
ENDBRANCH  25  33
ENDBRANCH  24  25
ENDBRANCH   2  24
TORSDOF 12
ENDMDL
