MODEL 1
REMARK VINA RESULT:     -10.8      0.000      0.000
REMARK  12 active torsions:
REMARK  status: ('A' for Active; 'I' for Inactive)
REMARK    1  A    between atoms: N1_2  and  C31_40 
REMARK    2  A    between atoms: C2_4  and  C3_7 
REMARK       I    between atoms: N2_5  and  C3_7 
REMARK    3  A    between atoms: N2_5  and  C4_10 
REMARK    4  A    between atoms: N3_8  and  C10_19 
REMARK       I    between atoms: N4_11  and  C21_30 
REMARK    5  A    between atoms: N4_11  and  C22_31 
REMARK    6  A    between atoms: C10_19  and  C11_20 
REMARK    7  A    between atoms: C11_20  and  C12_21 
REMARK    8  A    between atoms: C12_21  and  C13_22 
REMARK    9  A    between atoms: C13_22  and  C14_23 
REMARK   10  A    between atoms: C13_22  and  C21_30 
REMARK   11  A    between atoms: C14_23  and  C15_24 
REMARK   12  A    between atoms: C31_40  and  C32_41 
ROOT
HETATM    1  O2  MK1 B 902      15.202  24.301   4.704  1.00 15.87    -0.221 OA
HETATM    2  C11 MK1 B 902      14.074  23.678   5.242  1.00 21.68     0.174 C 
ENDROOT
BRANCH   2   3
HETATM    3  C10 MK1 B 902      13.077  24.703   4.698  1.00 20.86     0.131 C 
BRANCH   3   4
HETATM    4  N3  MK1 B 902      11.747  24.174   4.471  1.00 28.91    -0.357 N 
HETATM    5  C2  MK1 B 902      10.585  24.955   5.026  1.00 27.27     0.192 C 
HETATM    6  C1  MK1 B 902       9.405  24.159   4.505  1.00 30.30     0.282 C 
HETATM    7  N1  MK1 B 902       9.206  23.934   3.048  1.00 28.25     0.146 N 
HETATM    8  C9  MK1 B 902      10.303  23.206   2.586  1.00 27.47     0.274 C 
HETATM    9  C8  MK1 B 902      11.663  23.648   3.086  1.00 26.24     0.133 C 
BRANCH   5  10
HETATM   10  C3  MK1 B 902      10.534  24.949   6.530  1.00 28.85     0.273 C 
HETATM   11  O1  MK1 B 902      10.637  23.896   7.147  1.00 29.59    -0.269 OA
HETATM   12  N2  MK1 B 902      10.363  26.111   7.127  1.00 22.29    -0.240 NA
BRANCH  12  13
HETATM   13  C4  MK1 B 902      10.341  26.443   8.515  1.00 23.47     0.088 C 
HETATM   14  C5  MK1 B 902       9.935  27.925   8.617  1.00 27.66     0.025 C 
HETATM   15  C6  MK1 B 902      11.554  26.230   9.150  1.00 21.71     0.025 C 
HETATM   16  C7  MK1 B 902       9.310  25.726   9.273  1.00 22.75     0.025 C 
ENDBRANCH  12  13
ENDBRANCH   5  10
BRANCH   7  17
HETATM   17  C31 MK1 B 902       7.901  23.417   2.619  1.00 36.25     0.278 C 
BRANCH  17  18
HETATM   18  C32 MK1 B 902       6.592  24.031   3.129  1.00 42.75     0.030 A 
HETATM   19  C33 MK1 B 902       6.296  25.397   3.024  1.00 47.41     0.097 A 
HETATM   20  N5  MK1 B 902       5.115  26.028   3.449  1.00 51.38    -0.243 NA
HETATM   21  C34 MK1 B 902       4.234  25.103   4.007  1.00 50.60     0.099 A 
HETATM   22  C35 MK1 B 902       4.466  23.731   4.143  1.00 49.34     0.020 A 
HETATM   23  C36 MK1 B 902       5.665  23.182   3.695  1.00 44.71     0.001 A 
ENDBRANCH  17  18
ENDBRANCH   7  17
ENDBRANCH   3   4
ENDBRANCH   2   3
BRANCH   2  24
HETATM   24  C12 MK1 B 902      14.333  23.436   6.740  1.00 21.49     0.045 C 
BRANCH  24  25
HETATM   25  C13 MK1 B 902      15.429  22.463   7.197  1.00 26.89     0.088 C 
BRANCH  25  26
HETATM   26  C14 MK1 B 902      15.369  22.185   8.709  1.00 28.67     0.036 C 
BRANCH  26  27
HETATM   27  C15 MK1 B 902      16.497  21.340   9.176  1.00 26.89    -0.022 A 
HETATM   28  C16 MK1 B 902      16.310  20.203   9.964  1.00 29.22    -0.004 A 
HETATM   29  C17 MK1 B 902      17.396  19.464  10.408  1.00 29.22    -0.000 A 
HETATM   30  C18 MK1 B 902      18.683  19.879  10.053  1.00 30.97    -0.000 A 
HETATM   31  C19 MK1 B 902      18.874  21.014   9.256  1.00 29.25    -0.000 A 
HETATM   32  C20 MK1 B 902      17.771  21.747   8.818  1.00 29.96    -0.004 A 
ENDBRANCH  26  27
ENDBRANCH  25  26
BRANCH  25  33
HETATM   33  C21 MK1 B 902      15.365  21.136   6.449  1.00 29.35     0.252 C 
HETATM   34  O3  MK1 B 902      14.304  20.495   6.390  1.00 32.66    -0.271 OA
HETATM   35  N4  MK1 B 902      16.529  20.682   5.993  1.00 31.19    -0.233 NA
BRANCH  35  36
HETATM   36  C22 MK1 B 902      16.692  19.304   5.560  1.00 29.22     0.159 C 
HETATM   37  C23 MK1 B 902      18.099  18.791   5.813  1.00 28.82     0.183 C 
HETATM   38  O4  MK1 B 902      19.041  19.842   5.660  1.00 28.32    -0.221 OA
HETATM   39  C24 MK1 B 902      18.287  17.651   4.838  1.00 32.05     0.061 C 
HETATM   40  C25 MK1 B 902      17.493  17.893   3.578  1.00 31.29    -0.022 A 
HETATM   41  C26 MK1 B 902      17.506  17.454   2.275  1.00 32.00    -0.004 A 
HETATM   42  C30 MK1 B 902      16.482  18.972   4.060  1.00 31.86    -0.001 A 
HETATM   43  C27 MK1 B 902      16.570  17.992   1.385  1.00 28.00    -0.000 A 
HETATM   44  C28 MK1 B 902      15.643  18.955   1.812  1.00 29.01    -0.000 A 
HETATM   45  C29 MK1 B 902      15.614  19.427   3.117  1.00 27.70    -0.003 A 
ENDBRANCH  35  36
ENDBRANCH  25  33
ENDBRANCH  24  25
ENDBRANCH   2  24
TORSDOF 12
ENDMDL
