MODEL 1
REMARK VINA RESULT:      -6.9      0.000      0.000
REMARK  12 active torsions:
REMARK  status: ('A' for Active; 'I' for Inactive)
REMARK    1  A    between atoms: N1_2  and  C31_40 
REMARK    2  A    between atoms: C2_4  and  C3_7 
REMARK       I    between atoms: N2_5  and  C3_7 
REMARK    3  A    between atoms: N2_5  and  C4_10 
REMARK    4  A    between atoms: N3_8  and  C10_19 
REMARK       I    between atoms: N4_11  and  C21_30 
REMARK    5  A    between atoms: N4_11  and  C22_31 
REMARK    6  A    between atoms: C10_19  and  C11_20 
REMARK    7  A    between atoms: C11_20  and  C12_21 
REMARK    8  A    between atoms: C12_21  and  C13_22 
REMARK    9  A    between atoms: C13_22  and  C14_23 
REMARK   10  A    between atoms: C13_22  and  C21_30 
REMARK   11  A    between atoms: C14_23  and  C15_24 
REMARK   12  A    between atoms: C31_40  and  C32_41 
ROOT
HETATM    1  O2  MK1 B 902      31.948  16.858   0.525  1.00 15.87    -0.221 OA
HETATM    2  C11 MK1 B 902      31.920  18.064   1.226  1.00 21.68     0.174 C 
ENDROOT
BRANCH   2   3
HETATM    3  C10 MK1 B 902      31.132  17.515   2.416  1.00 20.86     0.131 C 
BRANCH   3   4
HETATM    4  N3  MK1 B 902      30.361  18.514   3.129  1.00 28.91    -0.357 N 
HETATM    5  C2  MK1 B 902      28.892  18.252   3.321  1.00 27.27     0.192 C 
HETATM    6  C1  MK1 B 902      28.478  19.435   4.174  1.00 30.30     0.282 C 
HETATM    7  N1  MK1 B 902      29.115  19.699   5.492  1.00 28.25     0.146 N 
HETATM    8  C9  MK1 B 902      30.468  19.939   5.258  1.00 27.47     0.274 C 
HETATM    9  C8  MK1 B 902      31.158  19.013   4.278  1.00 26.24     0.133 C 
BRANCH   5  10
HETATM   10  C3  MK1 B 902      28.111  18.298   2.035  1.00 28.85     0.273 C 
HETATM   11  O1  MK1 B 902      27.566  17.288   1.607  1.00 29.59    -0.269 OA
HETATM   12  N2  MK1 B 902      28.063  19.455   1.406  1.00 22.29    -0.240 NA
BRANCH  12  13
HETATM   13  C4  MK1 B 902      27.361  19.834   0.222  1.00 23.47     0.088 C 
HETATM   14  C5  MK1 B 902      27.891  21.220  -0.191  1.00 27.66     0.025 C 
HETATM   15  C6  MK1 B 902      25.986  19.875   0.387  1.00 21.71     0.025 C 
HETATM   16  C7  MK1 B 902      27.646  18.974  -0.930  1.00 22.75     0.025 C 
ENDBRANCH  12  13
ENDBRANCH   5  10
BRANCH   7  17
HETATM   17  C31 MK1 B 902      28.460  20.675   6.371  1.00 36.25     0.278 C 
BRANCH  17  18
HETATM   18  C32 MK1 B 902      27.587  20.229   7.550  1.00 42.75     0.030 A 
HETATM   19  C33 MK1 B 902      26.578  19.262   7.431  1.00 47.41     0.097 A 
HETATM   20  N5  MK1 B 902      25.753  18.789   8.465  1.00 51.38    -0.243 NA
HETATM   21  C34 MK1 B 902      26.066  19.413   9.672  1.00 50.60     0.099 A 
HETATM   22  C35 MK1 B 902      27.057  20.382   9.859  1.00 49.34     0.020 A 
HETATM   23  C36 MK1 B 902      27.833  20.797   8.780  1.00 44.71     0.001 A 
ENDBRANCH  17  18
ENDBRANCH   7  17
ENDBRANCH   3   4
ENDBRANCH   2   3
BRANCH   2  24
HETATM   24  C12 MK1 B 902      31.399  19.156   0.274  1.00 21.49     0.045 C 
BRANCH  24  25
HETATM   25  C13 MK1 B 902      32.304  19.733  -0.825  1.00 26.89     0.088 C 
BRANCH  25  26
HETATM   26  C14 MK1 B 902      33.798  19.611  -0.474  1.00 28.67     0.036 C 
BRANCH  26  27
HETATM   27  C15 MK1 B 902      34.475  20.930  -0.413  1.00 26.89    -0.022 A 
HETATM   28  C16 MK1 B 902      34.479  21.722   0.737  1.00 29.22    -0.004 A 
HETATM   29  C17 MK1 B 902      35.094  22.965   0.737  1.00 29.22    -0.000 A 
HETATM   30  C18 MK1 B 902      35.710  23.411  -0.435  1.00 30.97    -0.000 A 
HETATM   31  C19 MK1 B 902      35.716  22.616  -1.587  1.00 29.25    -0.000 A 
HETATM   32  C20 MK1 B 902      35.093  21.369  -1.572  1.00 29.96    -0.004 A 
ENDBRANCH  26  27
ENDBRANCH  25  26
BRANCH  25  33
HETATM   33  C21 MK1 B 902      32.059  19.069  -2.175  1.00 29.35     0.252 C 
HETATM   34  O3  MK1 B 902      32.997  18.872  -2.962  1.00 32.66    -0.271 OA
HETATM   35  N4  MK1 B 902      30.783  18.844  -2.476  1.00 31.19    -0.233 NA
BRANCH  35  36
HETATM   36  C22 MK1 B 902      30.364  18.532  -3.832  1.00 29.22     0.159 C 
HETATM   37  C23 MK1 B 902      29.958  19.777  -4.603  1.00 28.82     0.183 C 
HETATM   38  O4  MK1 B 902      29.359  20.723  -3.731  1.00 28.32    -0.221 OA
HETATM   39  C24 MK1 B 902      29.039  19.283  -5.698  1.00 32.05     0.061 C 
HETATM   40  C25 MK1 B 902      28.277  18.063  -5.242  1.00 31.29    -0.022 A 
HETATM   41  C26 MK1 B 902      27.128  17.398  -5.598  1.00 32.00    -0.004 A 
HETATM   42  C30 MK1 B 902      29.137  17.603  -4.031  1.00 31.86    -0.001 A 
HETATM   43  C27 MK1 B 902      26.751  16.279  -4.848  1.00 28.00    -0.000 A 
HETATM   44  C28 MK1 B 902      27.527  15.846  -3.762  1.00 29.01    -0.000 A 
HETATM   45  C29 MK1 B 902      28.685  16.504  -3.372  1.00 27.70    -0.003 A 
ENDBRANCH  35  36
ENDBRANCH  25  33
ENDBRANCH  24  25
ENDBRANCH   2  24
TORSDOF 12
ENDMDL
