MODEL 1
REMARK VINA RESULT:     -10.4      0.000      0.000
REMARK  12 active torsions:
REMARK  status: ('A' for Active; 'I' for Inactive)
REMARK    1  A    between atoms: N1_2  and  C31_40 
REMARK    2  A    between atoms: C2_4  and  C3_7 
REMARK       I    between atoms: N2_5  and  C3_7 
REMARK    3  A    between atoms: N2_5  and  C4_10 
REMARK    4  A    between atoms: N3_8  and  C10_19 
REMARK       I    between atoms: N4_11  and  C21_30 
REMARK    5  A    between atoms: N4_11  and  C22_31 
REMARK    6  A    between atoms: C10_19  and  C11_20 
REMARK    7  A    between atoms: C11_20  and  C12_21 
REMARK    8  A    between atoms: C12_21  and  C13_22 
REMARK    9  A    between atoms: C13_22  and  C14_23 
REMARK   10  A    between atoms: C13_22  and  C21_30 
REMARK   11  A    between atoms: C14_23  and  C15_24 
REMARK   12  A    between atoms: C31_40  and  C32_41 
ROOT
HETATM    1  O2  MK1 B 902      14.242  22.709   3.484  1.00 15.87    -0.221 OA
HETATM    2  C11 MK1 B 902      13.768  23.260   4.676  1.00 21.68     0.174 C 
ENDROOT
BRANCH   2   3
HETATM    3  C10 MK1 B 902      15.113  23.199   5.401  1.00 20.86     0.131 C 
BRANCH   3   4
HETATM    4  N3  MK1 B 902      15.133  22.307   6.543  1.00 28.91    -0.357 N 
HETATM    5  C2  MK1 B 902      15.979  21.066   6.440  1.00 27.27     0.192 C 
HETATM    6  C1  MK1 B 902      15.822  20.473   7.827  1.00 30.30     0.282 C 
HETATM    7  N1  MK1 B 902      16.202  21.239   9.044  1.00 28.25     0.146 N 
HETATM    8  C9  MK1 B 902      15.389  22.371   9.093  1.00 27.47     0.274 C 
HETATM    9  C8  MK1 B 902      15.186  23.112   7.788  1.00 26.24     0.133 C 
BRANCH   5  10
HETATM   10  C3  MK1 B 902      15.455  20.075   5.438  1.00 28.85     0.273 C 
HETATM   11  O1  MK1 B 902      14.346  19.576   5.584  1.00 29.59    -0.269 OA
HETATM   12  N2  MK1 B 902      16.245  19.772   4.427  1.00 22.29    -0.240 NA
BRANCH  12  13
HETATM   13  C4  MK1 B 902      16.016  18.934   3.294  1.00 23.47     0.088 C 
HETATM   14  C5  MK1 B 902      17.391  18.648   2.661  1.00 27.66     0.025 C 
HETATM   15  C6  MK1 B 902      15.163  19.497   2.358  1.00 21.71     0.025 C 
HETATM   16  C7  MK1 B 902      15.488  17.611   3.640  1.00 22.75     0.025 C 
ENDBRANCH  12  13
ENDBRANCH   5  10
BRANCH   7  17
HETATM   17  C31 MK1 B 902      16.295  20.494  10.305  1.00 36.25     0.278 C 
BRANCH  17  18
HETATM   18  C32 MK1 B 902      17.296  19.345  10.482  1.00 42.75     0.030 A 
HETATM   19  C33 MK1 B 902      18.685  19.534  10.474  1.00 47.41     0.097 A 
HETATM   20  N5  MK1 B 902      19.660  18.537  10.648  1.00 51.38    -0.243 NA
HETATM   21  C34 MK1 B 902      19.066  17.291  10.840  1.00 50.60     0.099 A 
HETATM   22  C35 MK1 B 902      17.692  17.035  10.859  1.00 49.34     0.020 A 
HETATM   23  C36 MK1 B 902      16.788  18.079  10.678  1.00 44.71     0.001 A 
ENDBRANCH  17  18
ENDBRANCH   7  17
ENDBRANCH   3   4
ENDBRANCH   2   3
BRANCH   2  24
HETATM   24  C12 MK1 B 902      12.519  22.467   5.104  1.00 21.49     0.045 C 
BRANCH  24  25
HETATM   25  C13 MK1 B 902      11.160  23.166   5.245  1.00 26.89     0.088 C 
BRANCH  25  26
HETATM   26  C14 MK1 B 902      11.302  24.689   5.417  1.00 28.67     0.036 C 
BRANCH  26  27
HETATM   27  C15 MK1 B 902      11.260  25.106   6.841  1.00 26.89    -0.022 A 
HETATM   28  C16 MK1 B 902      12.398  25.513   7.540  1.00 29.22    -0.004 A 
HETATM   29  C17 MK1 B 902      12.318  25.860   8.880  1.00 29.22    -0.000 A 
HETATM   30  C18 MK1 B 902      11.078  25.793   9.519  1.00 30.97    -0.000 A 
HETATM   31  C19 MK1 B 902       9.933  25.393   8.820  1.00 29.25    -0.000 A 
HETATM   32  C20 MK1 B 902      10.029  25.048   7.472  1.00 29.96    -0.004 A 
ENDBRANCH  26  27
ENDBRANCH  25  26
BRANCH  25  33
HETATM   33  C21 MK1 B 902      10.246  22.887   4.058  1.00 29.35     0.252 C 
HETATM   34  O3  MK1 B 902      10.644  22.208   3.100  1.00 32.66    -0.271 OA
HETATM   35  N4  MK1 B 902       9.074  23.517   4.081  1.00 31.19    -0.233 NA
BRANCH  35  36
HETATM   36  C22 MK1 B 902       8.243  23.621   2.893  1.00 29.22     0.159 C 
HETATM   37  C23 MK1 B 902       8.457  24.935   2.162  1.00 28.82     0.183 C 
HETATM   38  O4  MK1 B 902       8.740  25.973   3.089  1.00 28.32    -0.221 OA
HETATM   39  C24 MK1 B 902       7.192  25.155   1.363  1.00 32.05     0.061 C 
HETATM   40  C25 MK1 B 902       6.004  24.556   2.074  1.00 31.29    -0.022 A 
HETATM   41  C26 MK1 B 902       4.637  24.703   2.057  1.00 32.00    -0.004 A 
HETATM   42  C30 MK1 B 902       6.702  23.583   3.065  1.00 31.86    -0.001 A 
HETATM   43  C27 MK1 B 902       3.877  23.940   2.951  1.00 28.00    -0.000 A 
HETATM   44  C28 MK1 B 902       4.495  23.048   3.840  1.00 29.01    -0.000 A 
HETATM   45  C29 MK1 B 902       5.873  22.887   3.888  1.00 27.70    -0.003 A 
ENDBRANCH  35  36
ENDBRANCH  25  33
ENDBRANCH  24  25
ENDBRANCH   2  24
TORSDOF 12
ENDMDL
