MODEL 1
REMARK VINA RESULT:      -6.9      0.000      0.000
REMARK  12 active torsions:
REMARK  status: ('A' for Active; 'I' for Inactive)
REMARK    1  A    between atoms: N1_2  and  C31_40 
REMARK    2  A    between atoms: C2_4  and  C3_7 
REMARK       I    between atoms: N2_5  and  C3_7 
REMARK    3  A    between atoms: N2_5  and  C4_10 
REMARK    4  A    between atoms: N3_8  and  C10_19 
REMARK       I    between atoms: N4_11  and  C21_30 
REMARK    5  A    between atoms: N4_11  and  C22_31 
REMARK    6  A    between atoms: C10_19  and  C11_20 
REMARK    7  A    between atoms: C11_20  and  C12_21 
REMARK    8  A    between atoms: C12_21  and  C13_22 
REMARK    9  A    between atoms: C13_22  and  C14_23 
REMARK   10  A    between atoms: C13_22  and  C21_30 
REMARK   11  A    between atoms: C14_23  and  C15_24 
REMARK   12  A    between atoms: C31_40  and  C32_41 
ROOT
HETATM    1  O2  MK1 B 902      26.218  17.458  -6.482  1.00 15.87    -0.221 OA
HETATM    2  C11 MK1 B 902      27.425  16.786  -6.281  1.00 21.68     0.174 C 
ENDROOT
BRANCH   2   3
HETATM    3  C10 MK1 B 902      26.965  15.478  -6.926  1.00 20.86     0.131 C 
BRANCH   3   4
HETATM    4  N3  MK1 B 902      27.857  14.977  -7.953  1.00 28.91    -0.357 N 
HETATM    5  C2  MK1 B 902      27.284  14.020  -8.964  1.00 27.27     0.192 C 
HETATM    6  C1  MK1 B 902      28.462  13.819  -9.897  1.00 30.30     0.282 C 
HETATM    7  N1  MK1 B 902      29.099  14.966 -10.598  1.00 28.25     0.146 N 
HETATM    8  C9  MK1 B 902      29.615  15.816  -9.621  1.00 27.47     0.274 C 
HETATM    9  C8  MK1 B 902      28.726  16.085  -8.424  1.00 26.24     0.133 C 
BRANCH   5  10
HETATM   10  C3  MK1 B 902      26.915  12.688  -8.372  1.00 28.85     0.273 C 
HETATM   11  O1  MK1 B 902      25.743  12.331  -8.336  1.00 29.59    -0.269 OA
HETATM   12  N2  MK1 B 902      27.898  11.952  -7.894  1.00 22.29    -0.240 NA
BRANCH  12  13
HETATM   13  C4  MK1 B 902      27.883  10.636  -7.341  1.00 23.47     0.088 C 
HETATM   14  C5  MK1 B 902      29.301  10.357  -6.806  1.00 27.66     0.025 C 
HETATM   15  C6  MK1 B 902      27.512   9.661  -8.253  1.00 21.71     0.025 C 
HETATM   16  C7  MK1 B 902      27.015  10.503  -6.167  1.00 22.75     0.025 C 
ENDBRANCH  12  13
ENDBRANCH   5  10
BRANCH   7  17
HETATM   17  C31 MK1 B 902      30.026  14.654 -11.693  1.00 36.25     0.278 C 
BRANCH  17  18
HETATM   18  C32 MK1 B 902      30.313  15.666 -12.809  1.00 42.75     0.030 A 
HETATM   19  C33 MK1 B 902      31.251  15.436 -13.826  1.00 47.41     0.097 A 
HETATM   20  N5  MK1 B 902      31.553  16.303 -14.889  1.00 51.38    -0.243 NA
HETATM   21  C34 MK1 B 902      30.783  17.463 -14.816  1.00 50.60     0.099 A 
HETATM   22  C35 MK1 B 902      29.834  17.754 -13.831  1.00 49.34     0.020 A 
HETATM   23  C36 MK1 B 902      29.592  16.840 -12.809  1.00 44.71     0.001 A 
ENDBRANCH  17  18
ENDBRANCH   7  17
ENDBRANCH   3   4
ENDBRANCH   2   3
BRANCH   2  24
HETATM   24  C12 MK1 B 902      27.808  16.930  -4.797  1.00 21.49     0.045 C 
BRANCH  24  25
HETATM   25  C13 MK1 B 902      28.658  18.117  -4.321  1.00 26.89     0.088 C 
BRANCH  25  26
HETATM   26  C14 MK1 B 902      29.179  17.922  -2.885  1.00 28.67     0.036 C 
BRANCH  26  27
HETATM   27  C15 MK1 B 902      28.657  18.948  -1.948  1.00 26.89    -0.022 A 
HETATM   28  C16 MK1 B 902      27.570  18.712  -1.104  1.00 29.22    -0.004 A 
HETATM   29  C17 MK1 B 902      27.093  19.712  -0.270  1.00 29.22    -0.000 A 
HETATM   30  C18 MK1 B 902      27.719  20.962  -0.291  1.00 30.97    -0.000 A 
HETATM   31  C19 MK1 B 902      28.814  21.199  -1.131  1.00 29.25    -0.000 A 
HETATM   32  C20 MK1 B 902      29.282  20.183  -1.963  1.00 29.96    -0.004 A 
ENDBRANCH  26  27
ENDBRANCH  25  26
BRANCH  25  33
HETATM   33  C21 MK1 B 902      29.843  18.380  -5.243  1.00 29.35     0.252 C 
HETATM   34  O3  MK1 B 902      30.824  17.622  -5.243  1.00 32.66    -0.271 OA
HETATM   35  N4  MK1 B 902      29.789  19.519  -5.928  1.00 31.19    -0.233 NA
BRANCH  35  36
HETATM   36  C22 MK1 B 902      30.964  20.069  -6.583  1.00 29.22     0.159 C 
HETATM   37  C23 MK1 B 902      31.158  21.541  -6.262  1.00 28.82     0.183 C 
HETATM   38  O4  MK1 B 902      29.901  22.181  -6.105  1.00 28.32    -0.221 OA
HETATM   39  C24 MK1 B 902      31.988  22.090  -7.400  1.00 32.05     0.061 C 
HETATM   40  C25 MK1 B 902      31.691  21.349  -8.680  1.00 31.29    -0.022 A 
HETATM   41  C26 MK1 B 902      31.833  21.566 -10.030  1.00 32.00    -0.004 A 
HETATM   42  C30 MK1 B 902      31.017  20.058  -8.134  1.00 31.86    -0.001 A 
HETATM   43  C27 MK1 B 902      31.366  20.585 -10.912  1.00 28.00    -0.000 A 
HETATM   44  C28 MK1 B 902      30.770  19.410 -10.430  1.00 29.01    -0.000 A 
HETATM   45  C29 MK1 B 902      30.602  19.168  -9.074  1.00 27.70    -0.003 A 
ENDBRANCH  35  36
ENDBRANCH  25  33
ENDBRANCH  24  25
ENDBRANCH   2  24
TORSDOF 12
ENDMDL
