MODEL 1
REMARK VINA RESULT:     -10.5      0.000      0.000
REMARK  12 active torsions:
REMARK  status: ('A' for Active; 'I' for Inactive)
REMARK    1  A    between atoms: N1_2  and  C31_40 
REMARK    2  A    between atoms: C2_4  and  C3_7 
REMARK       I    between atoms: N2_5  and  C3_7 
REMARK    3  A    between atoms: N2_5  and  C4_10 
REMARK    4  A    between atoms: N3_8  and  C10_19 
REMARK       I    between atoms: N4_11  and  C21_30 
REMARK    5  A    between atoms: N4_11  and  C22_31 
REMARK    6  A    between atoms: C10_19  and  C11_20 
REMARK    7  A    between atoms: C11_20  and  C12_21 
REMARK    8  A    between atoms: C12_21  and  C13_22 
REMARK    9  A    between atoms: C13_22  and  C14_23 
REMARK   10  A    between atoms: C13_22  and  C21_30 
REMARK   11  A    between atoms: C14_23  and  C15_24 
REMARK   12  A    between atoms: C31_40  and  C32_41 
ROOT
HETATM    1  O2  MK1 B 902      14.050  22.503   3.281  1.00 15.87    -0.221 OA
HETATM    2  C11 MK1 B 902      13.625  23.096   4.471  1.00 21.68     0.174 C 
ENDROOT
BRANCH   2   3
HETATM    3  C10 MK1 B 902      15.001  23.068   5.139  1.00 20.86     0.131 C 
BRANCH   3   4
HETATM    4  N3  MK1 B 902      15.066  22.243   6.329  1.00 28.91    -0.357 N 
HETATM    5  C2  MK1 B 902      15.978  21.046   6.296  1.00 27.27     0.192 C 
HETATM    6  C1  MK1 B 902      15.850  20.524   7.714  1.00 30.30     0.282 C 
HETATM    7  N1  MK1 B 902      16.185  21.376   8.886  1.00 28.25     0.146 N 
HETATM    8  C9  MK1 B 902      15.313  22.463   8.872  1.00 27.47     0.274 C 
HETATM    9  C8  MK1 B 902      15.073  23.119   7.527  1.00 26.24     0.133 C 
BRANCH   5  10
HETATM   10  C3  MK1 B 902      15.510  19.973   5.351  1.00 28.85     0.273 C 
HETATM   11  O1  MK1 B 902      14.435  19.414   5.534  1.00 29.59    -0.269 OA
HETATM   12  N2  MK1 B 902      16.311  19.667   4.349  1.00 22.29    -0.240 NA
BRANCH  12  13
HETATM   13  C4  MK1 B 902      16.126  18.759   3.263  1.00 23.47     0.088 C 
HETATM   14  C5  MK1 B 902      15.206  19.457   2.245  1.00 27.66     0.025 C 
HETATM   15  C6  MK1 B 902      15.584  17.544   3.649  1.00 21.71     0.025 C 
HETATM   16  C7  MK1 B 902      17.357  18.481   2.517  1.00 22.75     0.025 C 
ENDBRANCH  12  13
ENDBRANCH   5  10
BRANCH   7  17
HETATM   17  C31 MK1 B 902      16.316  20.709  10.187  1.00 36.25     0.278 C 
BRANCH  17  18
HETATM   18  C32 MK1 B 902      17.214  19.479  10.367  1.00 42.75     0.030 A 
HETATM   19  C33 MK1 B 902      18.606  19.518  10.202  1.00 47.41     0.097 A 
HETATM   20  N5  MK1 B 902      19.494  18.442  10.368  1.00 51.38    -0.243 NA
HETATM   21  C34 MK1 B 902      18.806  17.286  10.733  1.00 50.60     0.099 A 
HETATM   22  C35 MK1 B 902      17.424  17.178  10.913  1.00 49.34     0.020 A 
HETATM   23  C36 MK1 B 902      16.611  18.294  10.729  1.00 44.71     0.001 A 
ENDBRANCH  17  18
ENDBRANCH   7  17
ENDBRANCH   3   4
ENDBRANCH   2   3
BRANCH   2  24
HETATM   24  C12 MK1 B 902      12.401  22.315   4.981  1.00 21.49     0.045 C 
BRANCH  24  25
HETATM   25  C13 MK1 B 902      11.054  23.023   5.192  1.00 26.89     0.088 C 
BRANCH  25  26
HETATM   26  C14 MK1 B 902      11.216  24.543   5.372  1.00 28.67     0.036 C 
BRANCH  26  27
HETATM   27  C15 MK1 B 902      11.146  24.955   6.797  1.00 26.89    -0.022 A 
HETATM   28  C16 MK1 B 902       9.957  24.934   7.529  1.00 29.22    -0.004 A 
HETATM   29  C17 MK1 B 902       9.932  25.362   8.847  1.00 29.22    -0.000 A 
HETATM   30  C18 MK1 B 902      11.117  25.818   9.430  1.00 30.97    -0.000 A 
HETATM   31  C19 MK1 B 902      12.313  25.833   8.701  1.00 29.25    -0.000 A 
HETATM   32  C20 MK1 B 902      12.323  25.398   7.377  1.00 29.96    -0.004 A 
ENDBRANCH  26  27
ENDBRANCH  25  26
BRANCH  25  33
HETATM   33  C21 MK1 B 902      10.086  22.763   4.044  1.00 29.35     0.252 C 
HETATM   34  O3  MK1 B 902      10.401  22.011   3.109  1.00 32.66    -0.271 OA
HETATM   35  N4  MK1 B 902       8.968  23.485   4.067  1.00 31.19    -0.233 NA
BRANCH  35  36
HETATM   36  C22 MK1 B 902       8.113  23.600   2.898  1.00 29.22     0.159 C 
HETATM   37  C23 MK1 B 902       8.299  24.928   2.184  1.00 28.82     0.183 C 
HETATM   38  O4  MK1 B 902       8.593  25.953   3.121  1.00 28.32    -0.221 OA
HETATM   39  C24 MK1 B 902       7.017  25.149   1.414  1.00 32.05     0.061 C 
HETATM   40  C25 MK1 B 902       5.849  24.528   2.139  1.00 31.29    -0.022 A 
HETATM   41  C26 MK1 B 902       4.480  24.663   2.152  1.00 32.00    -0.004 A 
HETATM   42  C30 MK1 B 902       6.575  23.545   3.101  1.00 31.86    -0.001 A 
HETATM   43  C27 MK1 B 902       3.746  23.879   3.049  1.00 28.00    -0.000 A 
HETATM   44  C28 MK1 B 902       4.389  22.978   3.911  1.00 29.01    -0.000 A 
HETATM   45  C29 MK1 B 902       5.769  22.830   3.929  1.00 27.70    -0.003 A 
ENDBRANCH  35  36
ENDBRANCH  25  33
ENDBRANCH  24  25
ENDBRANCH   2  24
TORSDOF 12
ENDMDL
