MODEL 1
REMARK VINA RESULT:     -10.8      0.000      0.000
REMARK  12 active torsions:
REMARK  status: ('A' for Active; 'I' for Inactive)
REMARK    1  A    between atoms: N1_2  and  C31_40 
REMARK    2  A    between atoms: C2_4  and  C3_7 
REMARK       I    between atoms: N2_5  and  C3_7 
REMARK    3  A    between atoms: N2_5  and  C4_10 
REMARK    4  A    between atoms: N3_8  and  C10_19 
REMARK       I    between atoms: N4_11  and  C21_30 
REMARK    5  A    between atoms: N4_11  and  C22_31 
REMARK    6  A    between atoms: C10_19  and  C11_20 
REMARK    7  A    between atoms: C11_20  and  C12_21 
REMARK    8  A    between atoms: C12_21  and  C13_22 
REMARK    9  A    between atoms: C13_22  and  C14_23 
REMARK   10  A    between atoms: C13_22  and  C21_30 
REMARK   11  A    between atoms: C14_23  and  C15_24 
REMARK   12  A    between atoms: C31_40  and  C32_41 
ROOT
HETATM    1  O2  MK1 B 902      15.084  24.351   4.665  1.00 15.87    -0.221 OA
HETATM    2  C11 MK1 B 902      13.935  23.749   5.183  1.00 21.68     0.174 C 
ENDROOT
BRANCH   2   3
HETATM    3  C10 MK1 B 902      12.970  24.807   4.646  1.00 20.86     0.131 C 
BRANCH   3   4
HETATM    4  N3  MK1 B 902      11.624  24.321   4.417  1.00 28.91    -0.357 N 
HETATM    5  C2  MK1 B 902      10.490  25.104   5.023  1.00 27.27     0.192 C 
HETATM    6  C1  MK1 B 902       9.283  24.361   4.485  1.00 30.30     0.282 C 
HETATM    7  N1  MK1 B 902       9.059  24.204   3.023  1.00 28.25     0.146 N 
HETATM    8  C9  MK1 B 902      10.130  23.472   2.514  1.00 27.47     0.274 C 
HETATM    9  C8  MK1 B 902      11.508  23.858   3.012  1.00 26.24     0.133 C 
BRANCH   5  10
HETATM   10  C3  MK1 B 902      10.460  25.033   6.525  1.00 28.85     0.273 C 
HETATM   11  O1  MK1 B 902      10.494  23.949   7.094  1.00 29.59    -0.269 OA
HETATM   12  N2  MK1 B 902      10.383  26.177   7.176  1.00 22.29    -0.240 NA
BRANCH  12  13
HETATM   13  C4  MK1 B 902      10.405  26.446   8.578  1.00 23.47     0.088 C 
HETATM   14  C5  MK1 B 902       9.978  27.914   8.762  1.00 27.66     0.025 C 
HETATM   15  C6  MK1 B 902      11.644  26.228   9.160  1.00 21.71     0.025 C 
HETATM   16  C7  MK1 B 902       9.414  25.677   9.338  1.00 22.75     0.025 C 
ENDBRANCH  12  13
ENDBRANCH   5  10
BRANCH   7  17
HETATM   17  C31 MK1 B 902       7.735  23.738   2.592  1.00 36.25     0.278 C 
BRANCH  17  18
HETATM   18  C32 MK1 B 902       6.461  24.152   3.337  1.00 42.75     0.030 A 
HETATM   19  C33 MK1 B 902       6.151  25.486   3.640  1.00 47.41     0.097 A 
HETATM   20  N5  MK1 B 902       4.998  25.943   4.300  1.00 51.38    -0.243 NA
HETATM   21  C34 MK1 B 902       4.163  24.878   4.631  1.00 50.60     0.099 A 
HETATM   22  C35 MK1 B 902       4.411  23.529   4.360  1.00 49.34     0.020 A 
HETATM   23  C36 MK1 B 902       5.580  23.157   3.700  1.00 44.71     0.001 A 
ENDBRANCH  17  18
ENDBRANCH   7  17
ENDBRANCH   3   4
ENDBRANCH   2   3
BRANCH   2  24
HETATM   24  C12 MK1 B 902      14.174  23.476   6.679  1.00 21.49     0.045 C 
BRANCH  24  25
HETATM   25  C13 MK1 B 902      15.326  22.569   7.134  1.00 26.89     0.088 C 
BRANCH  25  26
HETATM   26  C14 MK1 B 902      15.332  22.354   8.658  1.00 28.67     0.036 C 
BRANCH  26  27
HETATM   27  C15 MK1 B 902      16.501  21.561   9.115  1.00 26.89    -0.022 A 
HETATM   28  C16 MK1 B 902      17.815  21.907   8.795  1.00 29.22    -0.004 A 
HETATM   29  C17 MK1 B 902      18.876  21.117   9.213  1.00 29.22    -0.000 A 
HETATM   30  C18 MK1 B 902      18.604  19.967   9.959  1.00 30.97    -0.000 A 
HETATM   31  C19 MK1 B 902      17.288  19.622  10.289  1.00 29.25    -0.000 A 
HETATM   32  C20 MK1 B 902      16.233  20.427   9.862  1.00 29.96    -0.004 A 
ENDBRANCH  26  27
ENDBRANCH  25  26
BRANCH  25  33
HETATM   33  C21 MK1 B 902      15.292  21.210   6.445  1.00 29.35     0.252 C 
HETATM   34  O3  MK1 B 902      14.252  20.534   6.432  1.00 32.66    -0.271 OA
HETATM   35  N4  MK1 B 902      16.462  20.773   5.988  1.00 31.19    -0.233 NA
BRANCH  35  36
HETATM   36  C22 MK1 B 902      16.662  19.383   5.612  1.00 29.22     0.159 C 
HETATM   37  C23 MK1 B 902      18.075  18.910   5.909  1.00 28.82     0.183 C 
HETATM   38  O4  MK1 B 902      18.997  19.975   5.732  1.00 28.32    -0.221 OA
HETATM   39  C24 MK1 B 902      18.304  17.739   4.982  1.00 32.05     0.061 C 
HETATM   40  C25 MK1 B 902      17.529  17.916   3.700  1.00 31.29    -0.022 A 
HETATM   41  C26 MK1 B 902      17.574  17.427   2.415  1.00 32.00    -0.004 A 
HETATM   42  C30 MK1 B 902      16.486  18.990   4.122  1.00 31.86    -0.001 A 
HETATM   43  C27 MK1 B 902      16.644  17.911   1.489  1.00 28.00    -0.000 A 
HETATM   44  C28 MK1 B 902      15.689  18.869   1.862  1.00 29.01    -0.000 A 
HETATM   45  C29 MK1 B 902      15.627  19.390   3.147  1.00 27.70    -0.003 A 
ENDBRANCH  35  36
ENDBRANCH  25  33
ENDBRANCH  24  25
ENDBRANCH   2  24
TORSDOF 12
ENDMDL
