MODEL 1
REMARK VINA RESULT:      -6.4      0.000      0.000
REMARK  12 active torsions:
REMARK  status: ('A' for Active; 'I' for Inactive)
REMARK    1  A    between atoms: N1_2  and  C31_40 
REMARK    2  A    between atoms: C2_4  and  C3_7 
REMARK       I    between atoms: N2_5  and  C3_7 
REMARK    3  A    between atoms: N2_5  and  C4_10 
REMARK    4  A    between atoms: N3_8  and  C10_19 
REMARK       I    between atoms: N4_11  and  C21_30 
REMARK    5  A    between atoms: N4_11  and  C22_31 
REMARK    6  A    between atoms: C10_19  and  C11_20 
REMARK    7  A    between atoms: C11_20  and  C12_21 
REMARK    8  A    between atoms: C12_21  and  C13_22 
REMARK    9  A    between atoms: C13_22  and  C14_23 
REMARK   10  A    between atoms: C13_22  and  C21_30 
REMARK   11  A    between atoms: C14_23  and  C15_24 
REMARK   12  A    between atoms: C31_40  and  C32_41 
ROOT
HETATM    1  O2  MK1 B 902      13.020  44.336  27.833  1.00 15.87    -0.221 OA
HETATM    2  C11 MK1 B 902      12.490  44.675  26.587  1.00 21.68     0.174 C 
ENDROOT
BRANCH   2   3
HETATM    3  C10 MK1 B 902      11.857  43.307  26.328  1.00 20.86     0.131 C 
BRANCH   3   4
HETATM    4  N3  MK1 B 902      10.956  43.276  25.193  1.00 28.91    -0.357 N 
HETATM    5  C2  MK1 B 902      10.780  41.960  24.483  1.00 27.27     0.192 C 
HETATM    6  C1  MK1 B 902       9.717  42.305  23.459  1.00 30.30     0.282 C 
HETATM    7  N1  MK1 B 902       8.389  42.835  23.869  1.00 28.25     0.146 N 
HETATM    8  C9  MK1 B 902       8.608  44.051  24.516  1.00 27.47     0.274 C 
HETATM    9  C8  MK1 B 902       9.756  44.092  25.503  1.00 26.24     0.133 C 
BRANCH   5  10
HETATM   10  C3  MK1 B 902      12.016  41.513  23.752  1.00 28.85     0.273 C 
HETATM   11  O1  MK1 B 902      12.328  42.034  22.688  1.00 29.59    -0.269 OA
HETATM   12  N2  MK1 B 902      12.718  40.542  24.302  1.00 22.29    -0.240 NA
BRANCH  12  13
HETATM   13  C4  MK1 B 902      13.954  39.953  23.899  1.00 23.47     0.088 C 
HETATM   14  C5  MK1 B 902      13.642  38.510  23.460  1.00 27.66     0.025 C 
HETATM   15  C6  MK1 B 902      14.916  39.955  24.897  1.00 21.71     0.025 C 
HETATM   16  C7  MK1 B 902      14.543  40.579  22.712  1.00 22.75     0.025 C 
ENDBRANCH  12  13
ENDBRANCH   5  10
BRANCH   7  17
HETATM   17  C31 MK1 B 902       7.332  42.862  22.851  1.00 36.25     0.278 C 
BRANCH  17  18
HETATM   18  C32 MK1 B 902       6.272  41.756  22.771  1.00 42.75     0.030 A 
HETATM   19  C33 MK1 B 902       4.972  41.976  22.293  1.00 47.41     0.097 A 
HETATM   20  N5  MK1 B 902       3.956  41.013  22.172  1.00 51.38    -0.243 NA
HETATM   21  C34 MK1 B 902       4.407  39.764  22.595  1.00 50.60     0.099 A 
HETATM   22  C35 MK1 B 902       5.686  39.477  23.082  1.00 49.34     0.020 A 
HETATM   23  C36 MK1 B 902       6.638  40.489  23.170  1.00 44.71     0.001 A 
ENDBRANCH  17  18
ENDBRANCH   7  17
ENDBRANCH   3   4
ENDBRANCH   2   3
BRANCH   2  24
HETATM   24  C12 MK1 B 902      13.622  45.279  25.737  1.00 21.49     0.045 C 
BRANCH  24  25
HETATM   25  C13 MK1 B 902      14.110  44.568  24.467  1.00 26.89     0.088 C 
BRANCH  25  26
HETATM   26  C14 MK1 B 902      14.260  45.535  23.278  1.00 28.67     0.036 C 
BRANCH  26  27
HETATM   27  C15 MK1 B 902      13.169  45.384  22.283  1.00 26.89    -0.022 A 
HETATM   28  C16 MK1 B 902      11.822  45.558  22.610  1.00 29.22    -0.004 A 
HETATM   29  C17 MK1 B 902      10.833  45.371  21.657  1.00 29.22    -0.000 A 
HETATM   30  C18 MK1 B 902      11.208  45.003  20.362  1.00 30.97    -0.000 A 
HETATM   31  C19 MK1 B 902      12.557  44.836  20.028  1.00 29.25    -0.000 A 
HETATM   32  C20 MK1 B 902      13.541  45.028  20.998  1.00 29.96    -0.004 A 
ENDBRANCH  26  27
ENDBRANCH  25  26
BRANCH  25  33
HETATM   33  C21 MK1 B 902      15.436  43.849  24.686  1.00 29.35     0.252 C 
HETATM   34  O3  MK1 B 902      15.647  43.220  25.734  1.00 32.66    -0.271 OA
HETATM   35  N4  MK1 B 902      16.357  44.053  23.748  1.00 31.19    -0.233 NA
BRANCH  35  36
HETATM   36  C22 MK1 B 902      17.754  43.719  23.969  1.00 29.22     0.159 C 
HETATM   37  C23 MK1 B 902      18.686  44.816  23.482  1.00 28.82     0.183 C 
HETATM   38  O4  MK1 B 902      18.139  45.453  22.336  1.00 28.32    -0.221 OA
HETATM   39  C24 MK1 B 902      20.009  44.131  23.229  1.00 32.05     0.061 C 
HETATM   40  C25 MK1 B 902      19.793  42.701  22.799  1.00 31.29    -0.022 A 
HETATM   41  C26 MK1 B 902      20.503  41.726  22.138  1.00 32.00    -0.004 A 
HETATM   42  C30 MK1 B 902      18.331  42.459  23.270  1.00 31.86    -0.001 A 
HETATM   43  C27 MK1 B 902      19.880  40.494  21.907  1.00 28.00    -0.000 A 
HETATM   44  C28 MK1 B 902      18.566  40.261  22.340  1.00 29.01    -0.000 A 
HETATM   45  C29 MK1 B 902      17.821  41.229  22.999  1.00 27.70    -0.003 A 
ENDBRANCH  35  36
ENDBRANCH  25  33
ENDBRANCH  24  25
ENDBRANCH   2  24
TORSDOF 12
ENDMDL
