@<TRIPOS>MOLECULE
*****
 41 42 0 0 0
SMALL
GASTEIGER

@<TRIPOS>ATOM
      1  C1        26.8503  -55.6741   -5.7797 C.3     1  NDX1       -0.0523
      2  N1        29.0668  -56.1939   -6.9197 N.3     1  NDX1       -0.2866
      3  O1        30.9718  -59.1296   -9.2649 O.3     1  NDX1       -0.3909
      4  C2        28.3106  -55.2501   -6.0467 C.3     1  NDX1       -0.0025
      5  N2        28.2822  -55.0467   -8.9245 N.3     1  NDX1       -0.2983
      6  O2        29.4563  -60.5417   -6.3889 O.3     1  NDX1       -0.3668
      7  C3        29.3248  -57.4937   -6.2540 C.3     1  NDX1        0.0101
      8  O3        31.7681  -60.3395   -6.7192 O.3     1  NDX1       -0.3668
      9  C4        30.3690  -58.3321   -7.0250 C.3     1  NDX1        0.0488
     10  C5        29.9137  -58.5369   -8.4986 C.3     1  NDX1        0.0693
     11  C6        29.5164  -57.1970   -9.1720 C.3     1  NDX1        0.0144
     12  C7        28.5319  -56.3741   -8.2980 C.3     1  NDX1        0.0666
     13  C8        28.2101  -55.0234  -10.4081 C.3     1  NDX1        0.0062
     14  C9        27.8333  -56.4090  -10.9749 C.3     1  NDX1       -0.0373
     15  C10       28.8937  -57.4623  -10.5750 C.3     1  NDX1       -0.0438
     16  C11       27.2097  -53.9435  -10.8621 C.3     1  NDX1       -0.0496
     17  C12       30.5899  -59.6692   -6.2603 C.3     1  NDX1        0.1595
     18  H01       26.2817  -55.7394   -6.7094 H       1  NDX1        0.0242
     19  H02       26.8050  -56.6390   -5.2711 H       1  NDX1        0.0242
     20  H03       26.3637  -54.9348   -5.1399 H       1  NDX1        0.0242
     21  H04       30.6790  -59.1840  -10.1930 H       1  NDX1        0.2098
     22  H05       28.8300  -55.1636   -5.0882 H       1  NDX1        0.0424
     23  H06       28.3100  -54.2546   -6.4986 H       1  NDX1        0.0424
     24  H07       27.4413  -54.6408   -8.5190 H       1  NDX1        0.1237
     25  H08       29.1850  -60.8730   -5.5090 H       1  NDX1        0.2125
     26  H09       28.3914  -58.0584   -6.1775 H       1  NDX1        0.0432
     27  H10       29.7034  -57.3130   -5.2439 H       1  NDX1        0.0432
     28  H11       31.9420  -60.0800   -7.6500 H       1  NDX1        0.2125
     29  H12       31.3095  -57.7736   -7.0250 H       1  NDX1        0.0387
     30  H13       29.0453  -59.2015   -8.5095 H       1  NDX1        0.0602
     31  H14       30.4218  -56.5958   -9.3019 H       1  NDX1        0.0354
     32  H15       27.5726  -56.9106   -8.2347 H       1  NDX1        0.0634
     33  H16       29.1996  -54.7619  -10.7945 H       1  NDX1        0.0458
     34  H17       27.7512  -56.3694  -12.0639 H       1  NDX1        0.0280
     35  H18       26.8554  -56.7077  -10.5870 H       1  NDX1        0.0280
     36  H19       28.4197  -58.4466  -10.6070 H       1  NDX1        0.0270
     37  H20       29.6953  -57.4715  -11.3175 H       1  NDX1        0.0270
     38  H21       26.2053  -54.1646  -10.4926 H       1  NDX1        0.0245
     39  H22       27.5082  -52.9630  -10.4838 H       1  NDX1        0.0245
     40  H23       27.1718  -53.8898  -11.9525 H       1  NDX1        0.0245
     41  H24       30.7366  -59.4760   -5.1866 H       1  NDX1        0.0909
@<TRIPOS>BOND
     1    34    14    1
     2    40    16    1
     3    37    15    1
     4    33    13    1
     5    14    15    1
     6    14    13    1
     7    14    35    1
     8    16    39    1
     9    16    13    1
    10    16    38    1
    11    15    36    1
    12    15    11    1
    13    13     5    1
    14    21     3    1
    15    31    11    1
    16    11    10    1
    17    11    12    1
    18     3    10    1
    19     5    24    1
    20     5    12    1
    21    10    30    1
    22    10     9    1
    23    12    32    1
    24    12     2    1
    25    28     8    1
    26    29     9    1
    27     9     7    1
    28     9    17    1
    29     2     7    1
    30     2     4    1
    31    23     4    1
    32     8    17    1
    33     7    26    1
    34     7    27    1
    35     6    17    1
    36     6    25    1
    37    17    41    1
    38     4    22    1
    39     4     1    1
    40    18     1    1
    41     1    19    1
    42     1    20    1
