@<TRIPOS>MOLECULE
*****
 28 30 0 0 0
SMALL
GASTEIGER

@<TRIPOS>ATOM
      1  C1        16.8911   20.1837  -12.2855 C.3     1  PEN1        0.0124
      2  N1        13.9075   19.5501  -14.5258 N.3     1  PEN1       -0.2368
      3  O1        14.7181   19.2441  -16.8873 O.3     1  PEN1       -0.3687
      4  S1        14.8221   18.3354  -12.3469 S.3     1  PEN1       -0.1235
      5  C2        15.9965   19.3769  -13.2430 C.3     1  PEN1        0.0589
      6  N2        14.3790   16.9018  -15.8430 N.3     1  PEN1       -0.2717
      7  O2        14.7987   14.9490  -17.1378 O.3     1  PEN1       -0.3699
      8  C3        15.1519   20.2780  -14.1672 C.3     1  PEN1        0.1256
      9  O3        14.4950   22.5875  -14.6465 O.3     1  PEN1       -0.3592
     10  C4        13.7417   18.2765  -13.8130 C.3     1  PEN1        0.1263
     11  O4        13.7698   21.6694  -12.6514 O.3     1  PEN1       -0.3592
     12  C5        13.3500   17.7513  -15.1669 C.3     1  PEN1        0.1243
     13  C6        13.6484   19.1138  -15.9507 C.3     1  PEN1        0.1900
     14  C7        14.0896   15.4714  -16.0151 C.3     1  PEN1        0.1689
     15  C8        14.4153   14.6742  -14.7357 C.3     1  PEN1        0.0463
     16  C9        15.9084   14.7442  -14.3678 C.3     1  PEN1        0.0038
     17  C10       16.1015   14.9067  -12.8493 C.3     1  PEN1        0.0001
     18  C11       17.5882   15.0717  -12.4622 C.3     1  PEN1        0.0000
     19  C12       18.5680   14.6456  -13.5770 C.3     1  PEN1        0.0000
     20  C13       18.0921   13.3726  -14.3054 C.3     1  PEN1        0.0000
     21  C14       16.6740   13.5155  -14.9020 C.3     1  PEN1        0.0001
     22  C15       14.8398   21.6880  -13.5970 C.3     1  PEN1        0.2445
     23  C16       16.9179   18.5173  -14.1235 C.3     1  PEN1        0.0124
     24  H2        14.6040   18.5460  -17.5570 H       1  PEN1        0.2120
     25  H4        14.5110   14.0280  -17.2860 H       1  PEN1        0.2119
     26  H7        14.6592   17.2928  -16.7371 H       1  PEN1        0.1255
     27  H12       15.3180   22.9020  -15.0590 H       1  PEN1        0.2130
     28  H15       13.7560   20.7960  -12.2260 H       1  PEN1        0.2130
@<TRIPOS>BOND
     1    24     3    1
     2     7    25    1
     3     7    14    1
     4     3    13    1
     5    26     6    1
     6    14     6    1
     7    14    15    1
     8    13    12    1
     9    13     2    1
    10     6    12    1
    11    21    16    1
    12    21    20    1
    13    12    10    1
    14    27     9    1
    15    15    16    1
    16    16    17    1
    17    20    19    1
    18     2     8    1
    19     2    10    1
    20     9    22    1
    21    23     5    1
    22     8    22    1
    23     8     5    1
    24    10     4    1
    25    19    18    1
    26    22    11    1
    27     5     4    1
    28     5     1    1
    29    17    18    1
    30    11    28    1
