@<TRIPOS>MOLECULE
*****
 62 65 0 0 0
SMALL
GASTEIGER

@<TRIPOS>ATOM
      1  C1         4.4347    9.1755   23.6323 C.3   500  Z34500      0.2868
      2  O1         6.6029    9.4705   24.7484 O.3   500  Z34500     -0.4258
      3  C2         3.6263    8.3252   22.6669 C.2   500  Z34500      0.1007
      4  O2         6.5771    6.4594   21.2409 O.3   500  Z34500     -0.4270
      5  C3         4.3951    7.3571   21.8383 C.2   500  Z34500      0.2183
      6  C4         5.7908    7.1424   22.1462 C.2   500  Z34500      0.3140
      7  N5         6.4852    7.7829   23.0966 N.2   500  Z34500     -0.3305
      8  C6         5.8646    8.7231   23.8332 C.2   500  Z34500      0.2993
      9  C11        7.9556    9.1880   24.8638 C.ar  500  Z34500      0.1731
     10  N11       11.4691    7.7268   27.9319 N.2   500  Z34500     -0.0994
     11  O11        8.4975   10.1328   22.7113 O.3   500  Z34500     -0.5033
     12  C12        8.4003    8.6606   26.0753 C.ar  500  Z34500     -0.0008
     13  N12        9.4760    7.5977   28.7023 N.pl3 500  Z34500     -0.2466
     14  C13        9.7628    8.4537   26.3133 C.ar  500  Z34500      0.0684
     15  C14       10.6787    8.7782   25.3055 C.ar  500  Z34500     -0.0432
     16  C15       10.2413    9.3234   24.0998 C.ar  500  Z34500     -0.0157
     17  C16        8.8846    9.5473   23.8787 C.ar  500  Z34500      0.1592
     18  C17       10.2255    7.9226   27.6337 C.2   500  Z34500      0.3082
     19  C21        6.3929    5.0846   21.1935 C.ar  500  Z34500      0.1323
     20  N21        7.1363    2.3578   17.8708 N.pl3 500  Z34500     -0.2192
     21  C22        5.6458    4.3439   22.1218 C.ar  500  Z34500     -0.0192
     22  N22        8.7211    1.7123   19.1043 N.2   500  Z34500     -0.0790
     23  C23        5.5207    2.9639   21.9683 C.ar  500  Z34500     -0.0575
     24  C24        6.1429    2.3139   20.9043 C.ar  500  Z34500     -0.0467
     25  C25        6.9007    3.0428   19.9859 C.ar  500  Z34500      0.0686
     26  C26        7.0239    4.4243   20.1409 C.ar  500  Z34500     -0.0044
     27  C27        7.5704    2.3730   18.8972 C.2   500  Z34500      0.3149
     28  C28        8.3625    2.0832   17.0913 C.3   500  Z34500      0.1219
     29  C29        9.1925    1.0714   17.8817 C.3   500  Z34500      0.1676
     30  C30        6.1653    3.1541   17.0790 C.3   500  Z34500      0.0698
     31  N31        2.3039    8.5840   22.7538 N.pl3 500  Z34500     -0.3204
     32  C32        1.3729    7.5071   23.1729 C.3   500  Z34500      0.1090
     33  C33        1.7189    6.9291   24.5321 C.2   500  Z34500      0.3222
     34  O34        1.4893    7.4970   25.5780 O.2   500  Z34500     -0.2492
     35  O35        2.5073    5.8895   24.4799 O.3   500  Z34500     -0.4795
     36  C36        1.7700    9.3298   21.5920 C.3   500  Z34500      0.0012
     37  F1         4.3965   10.4752   23.2826 F     500  Z34500     -0.2195
     38  F2         3.6835    6.6042   20.9765 F     500  Z34500     -0.1969
     39 H363        2.3887   10.2099   21.3927 H     500  Z34500      0.0428
     40 H362        1.7606    8.6927   20.7029 H     500  Z34500      0.0428
     41 H361        0.7501    9.6677   21.7981 H     500  Z34500      0.0428
     42 H322        0.3535    7.8969   23.2527 H     500  Z34500      0.0579
     43 H321        1.3784    6.6928   22.4419 H     500  Z34500      0.0579
     44 H303        5.2251    3.2530   17.6303 H     500  Z34500      0.0689
     45 H302        6.5630    4.1550   16.8831 H     500  Z34500      0.0689
     46 H301        5.9545    2.6618   16.1246 H     500  Z34500      0.0689
     47 H292       10.2725    1.1776   17.7427 H     500  Z34500      0.0829
     48 H291        8.8241    0.0436   17.8083 H     500  Z34500      0.0829
     49 H282        8.1181    1.6649   16.1092 H     500  Z34500      0.0767
     50 H281        8.9392    3.0052   16.9394 H     500  Z34500      0.0767
     51 H122        8.8760    6.7722   28.6512 H     500  Z34500      0.2884
     52 H121        8.8876    8.3193   29.1251 H     500  Z34500      0.2884
     53 H111       11.6123    7.3829   28.8936 H     500  Z34500      0.3633
     54  H35        2.6180    5.6100   25.4090 H     500  Z34500      0.2951
     55  H26        7.6157    4.9992   19.4314 H     500  Z34500      0.0663
     56  H24        6.0399    1.2359   20.7981 H     500  Z34500      0.0626
     57  H23        4.9339    2.3927   22.6846 H     500  Z34500      0.0619
     58  H22        5.1514    4.8193   22.9653 H     500  Z34500      0.0654
     59  H15       10.9658    9.5961   23.3350 H     500  Z34500      0.0655
     60  H14       11.7461    8.6323   25.4547 H     500  Z34500      0.0627
     61  H12        7.6657    8.4334   26.8435 H     500  Z34500      0.0664
     62  H11        7.5280   10.2300   22.6940 H     500  Z34500      0.2923
@<TRIPOS>BOND
     1    46    30    1
     2    50    28    1
     3    49    28    1
     4    45    30    1
     5    30    44    1
     6    30    20    1
     7    28    20    1
     8    28    29    1
     9    20    27    1
    10    47    29    1
    11    48    29    1
    12    29    22    1
    13    27    22    2
    14    27    25    1
    15    55    26    1
    16    25    26   ar
    17    25    24   ar
    18    26    19   ar
    19    40    36    1
    20    56    24    1
    21    24    23   ar
    22    38     5    1
    23    19     4    1
    24    19    21   ar
    25     4     6    1
    26    41    36    1
    27    36    39    1
    28    36    31    1
    29     5     6    1
    30     5     3    2
    31    23    21   ar
    32    23    57    1
    33    21    58    1
    34     6     7    2
    35    43    32    1
    36    31     3    1
    37    31    32    1
    38    62    11    1
    39     3     1    1
    40     7     8    2
    41    32    42    1
    42    32    33    1
    43    11    17    1
    44    59    16    1
    45     1     8    1
    46     1    37    1
    47     8     2    1
    48    17    16   ar
    49    17     9   ar
    50    16    15   ar
    51    33    35    1
    52    33    34    2
    53    35    54    1
    54     2     9    1
    55     9    12   ar
    56    15    60    1
    57    15    14   ar
    58    12    14   ar
    59    12    61    1
    60    14    18    1
    61    18    10    2
    62    18    13    1
    63    10    53    1
    64    52    13    1
    65    13    51    1
