@<TRIPOS>MOLECULE
*****
 41 42 0 0 0
SMALL
GASTEIGER

@<TRIPOS>ATOM
      1  C1       -24.9976    0.4292   47.8972 C.3     1  NDX1       -0.0523
      2  N1       -24.1042    2.1265   46.2223 N.3     1  NDX1       -0.2866
      3  O1       -25.4864    5.5808   44.1891 O.3     1  NDX1       -0.3909
      4  C2       -23.8327    0.8740   46.9859 C.3     1  NDX1       -0.0025
      5  N2       -23.2624    3.5018   48.0464 N.3     1  NDX1       -0.2983
      6  O2       -26.0609    3.6736   41.9347 O.3     1  NDX1       -0.3668
      7  C3       -25.1265    1.9289   45.1647 C.3     1  NDX1        0.0101
      8  O3       -26.3968    1.5582   42.7006 O.3     1  NDX1       -0.3668
      9  C4       -25.2103    3.1371   44.1951 C.3     1  NDX1        0.0488
     10  C5       -25.4983    4.4186   45.0260 C.3     1  NDX1        0.0693
     11  C6       -24.4573    4.6081   46.1591 C.3     1  NDX1        0.0144
     12  C7       -24.3540    3.3406   47.0474 C.3     1  NDX1        0.0666
     13  C8       -23.0760    4.8667   48.6017 C.3     1  NDX1        0.0062
     14  C9       -24.3767    5.6929   48.5093 C.3     1  NDX1       -0.0373
     15  C10      -24.8186    5.8449   47.0341 C.3     1  NDX1       -0.0438
     16  C11      -22.5769    4.7695   50.0560 C.3     1  NDX1       -0.0496
     17  C12      -26.3168    2.9169   43.1152 C.3     1  NDX1        0.1595
     18  H01      -25.9024    0.2348   47.3184 H       1  NDX1        0.0242
     19  H02      -24.7276   -0.4929   48.4163 H       1  NDX1        0.0242
     20  H03      -25.2191    1.1857   48.6527 H       1  NDX1        0.0242
     21  H04      -26.2720    5.5530   43.6190 H       1  NDX1        0.2098
     22  H05      -23.6153    0.0687   46.2785 H       1  NDX1        0.0424
     23  H06      -22.9385    1.0067   47.6007 H       1  NDX1        0.0424
     24  H07      -23.3927    2.8246   48.7950 H       1  NDX1        0.1237
     25  H08      -26.1010    4.6160   42.1550 H       1  NDX1        0.2125
     26  H09      -26.1060    1.7683   45.6233 H       1  NDX1        0.0432
     27  H10      -24.8578    1.0353   44.5942 H       1  NDX1        0.0432
     28  H11      -26.5890    1.0360   43.4940 H       1  NDX1        0.2125
     29  H12      -24.2416    3.2417   43.6974 H       1  NDX1        0.0387
     30  H13      -26.4890    4.3220   45.4794 H       1  NDX1        0.0602
     31  H14      -23.4770    4.7794   45.7034 H       1  NDX1        0.0354
     32  H15      -25.3017    3.2080   47.5913 H       1  NDX1        0.0634
     33  H16      -22.3122    5.3767   48.0073 H       1  NDX1        0.0458
     34  H17      -24.2350    6.6824   48.9510 H       1  NDX1        0.0280
     35  H18      -25.1660    5.1939   49.0784 H       1  NDX1        0.0280
     36  H19      -25.8963    6.0253   47.0197 H       1  NDX1        0.0270
     37  H20      -24.3435    6.7286   46.6008 H       1  NDX1        0.0270
     38  H21      -22.3985    5.7654   50.4678 H       1  NDX1        0.0245
     39  H22      -23.3121    4.2623   50.6857 H       1  NDX1        0.0245
     40  H23      -21.6396    4.2100   50.1016 H       1  NDX1        0.0245
     41  H24      -27.3095    3.1992   43.4984 H       1  NDX1        0.0909
@<TRIPOS>BOND
     1     6    25    1
     2     6    17    1
     3     8    17    1
     4     8    28    1
     5    17    41    1
     6    17     9    1
     7    21     3    1
     8    29     9    1
     9     3    10    1
    10     9    10    1
    11     9     7    1
    12    27     7    1
    13    10    30    1
    14    10    11    1
    15     7    26    1
    16     7     2    1
    17    31    11    1
    18    11    12    1
    19    11    15    1
    20     2     4    1
    21     2    12    1
    22    22     4    1
    23    37    15    1
    24     4    23    1
    25     4     1    1
    26    36    15    1
    27    12    32    1
    28    12     5    1
    29    15    14    1
    30    18     1    1
    31     1    19    1
    32     1    20    1
    33     5    13    1
    34     5    24    1
    35    33    13    1
    36    14    13    1
    37    14    35    1
    38    14    34    1
    39    13    16    1
    40    16    40    1
    41    16    38    1
    42    16    39    1
