@<TRIPOS>MOLECULE
*****
   41    42     1     0     0
SMALL
bcc


@<TRIPOS>ATOM
      1 C1         -32.5480    -0.9000    49.4950 c3         1 NDX      -0.099100
      2 N1         -31.4490    -2.7540    48.1770 n3         1 NDX      -0.721600
      3 O1         -28.0080    -4.9140    46.8820 oh         1 NDX      -0.603800
      4 C2         -32.7070    -2.2820    48.8290 c3         1 NDX       0.171800
      5 N2         -32.6610    -3.4810    46.1870 n7         1 NDX      -0.814200
      6 O2         -27.8570    -5.0530    49.9750 oh         1 NDX      -0.639300
      7 C3         -30.4090    -3.0900    49.1880 c6         1 NDX       0.169800
      8 O3         -26.7240    -3.1310    49.2960 oh         1 NDX      -0.639300
      9 C4         -29.0510    -3.4190    48.5330 c6         1 NDX      -0.127700
     10 C5         -29.2350    -4.6160    47.5610 c6         1 NDX       0.143100
     11 C6         -30.3450    -4.3150    46.5250 c6         1 NDX      -0.107700
     12 C7         -31.6660    -3.8810    47.2210 c6         1 NDX       0.427700
     13 C8         -32.6880    -4.2930    44.9440 c6         1 NDX       0.173500
     14 C9         -32.0670    -5.6890    45.1650 c6         1 NDX      -0.114400
     15 C10        -30.5950    -5.5590    45.6210 c6         1 NDX      -0.076400
     16 C11        -34.1370    -4.4040    44.4310 c3         1 NDX      -0.092100
     17 C12        -28.0000    -3.6650    49.6590 c3         1 NDX       0.342900
     18 H01        -32.1310    -0.1790    48.7880 hc         1 NDX       0.037700
     19 H02        -33.5230    -0.5310    49.8210 hc         1 NDX       0.037700
     20 H03        -31.9010    -0.9460    50.3730 hc         1 NDX       0.037700
     21 H04        -27.7250    -4.1240    46.3850 ho         1 NDX       0.410000
     22 H05        -33.4990    -2.1710    48.0850 h1         1 NDX       0.040700
     23 H06        -33.0430    -3.0140    49.5680 h1         1 NDX       0.040700
     24 H07        -33.5860    -3.4470    46.6090 hn         1 NDX       0.361800
     25 H08        -27.7060    -5.5460    49.1400 ho         1 NDX       0.426000
     26 H09        -30.7410    -3.9430    49.7870 h1         1 NDX       0.040200
     27 H10        -30.2550    -2.2410    49.8570 h1         1 NDX       0.040200
     28 H11        -26.4500    -2.4810    49.9770 ho         1 NDX       0.426000
     29 H12        -28.7430    -2.5430    47.9550 hc         1 NDX       0.088700
     30 H13        -29.5410    -5.4940    48.1370 h1         1 NDX       0.083700
     31 H14        -30.0140    -3.4870    45.8910 hc         1 NDX       0.073700
     32 H15        -32.0760    -4.7350    47.7820 h2         1 NDX       0.012700
     33 H16        -32.0910    -3.7780    44.1860 h1         1 NDX       0.067700
     34 H17        -32.1130    -6.2800    44.2470 hc         1 NDX       0.045200
     35 H18        -32.6390    -6.2270    45.9260 hc         1 NDX       0.045200
     36 H19        -30.3200    -6.4780    46.1450 hc         1 NDX       0.050700
     37 H20        -29.9460    -5.4890    44.7440 hc         1 NDX       0.050700
     38 H21        -34.5530    -3.4110    44.2460 hc         1 NDX       0.039700
     39 H22        -34.1710    -4.9670    43.4960 hc         1 NDX       0.039700
     40 H23        -34.7690    -4.9120    45.1630 hc         1 NDX       0.039700
     41 H24        -28.2980    -3.1490    50.5850 h2         1 NDX       0.068700
@<TRIPOS>BOND
     1    39    16 1   
     2    33    13 1   
     3    34    14 1   
     4    16    38 1   
     5    16    13 1   
     6    16    40 1   
     7    37    15 1   
     8    13    14 1   
     9    13     5 1   
    10    14    15 1   
    11    14    35 1   
    12    15    36 1   
    13    15    11 1   
    14    31    11 1   
    15     5    24 1   
    16     5    12 1   
    17    21     3 1   
    18    11    12 1   
    19    11    10 1   
    20     3    10 1   
    21    12    32 1   
    22    12     2 1   
    23    10    30 1   
    24    10     9 1   
    25    22     4 1   
    26    29     9 1   
    27     2     4 1   
    28     2     7 1   
    29    18     1 1   
    30     9     7 1   
    31     9    17 1   
    32     4     1 1   
    33     4    23 1   
    34    19     1 1   
    35    25     6 1   
    36     1    20 1   
    37     7    26 1   
    38     7    27 1   
    39     8    17 1   
    40     8    28 1   
    41    17     6 1   
    42    17    41 1   
@<TRIPOS>SUBSTRUCTURE
     1 NDX         1 TEMP              0 ****  ****    0 ROOT
