MODEL 1
REMARK VINA RESULT:    -7.765      0.000      0.000
REMARK INTER + INTRA:         -12.425
REMARK INTER:                 -10.716
REMARK INTRA:                  -1.709
REMARK UNBOUND:                -1.709
REMARK  7 active torsions:
REMARK  status: ('A' for Active; 'I' for Inactive)
REMARK    1  A    between atoms: S_2  and  N_15 
REMARK    2  A    between atoms: O_4  and  C_23 
REMARK    3  A    between atoms: N_12  and  CA_19 
REMARK       I    between atoms: N_12  and  C_24 
REMARK    4  A    between atoms: N_13  and  CA_25 
REMARK       I    between atoms: N_13  and  C_27 
REMARK       I    between atoms: N_14  and  C_27 
REMARK    5  A    between atoms: CA_18  and  C_23 
REMARK    6  A    between atoms: C_24  and  CA_25 
REMARK    7  A    between atoms: CA_25  and  C_26 
ROOT
HETATM    1  CA  MEZ     1       8.860 -30.341  -8.172  1.00  0.00     0.211 C 
ENDROOT
BRANCH   1   2
HETATM    2  N   MEZ     1       9.600 -29.125  -7.926  1.00  0.00    -0.325 N 
HETATM    3  C   MEZ     1      10.805 -28.844  -8.558  1.00  0.00     0.327 C 
HETATM    4  O   MEZ     1      11.335 -29.603  -9.372  1.00  0.00    -0.247 OA
HETATM    5  N   MEZ     1      11.375 -27.607  -8.176  1.00  0.00    -0.249 N 
HETATM    6  C   MEZ     1      12.691 -27.220  -8.685  1.00  0.00     0.159 C 
HETATM    7  C   MEZ     1      10.906 -26.630  -7.270  1.00  0.00     0.342 C 
HETATM    8  C   MEZ     1      12.893 -25.754  -8.311  1.00  0.00     0.167 C 
HETATM    9  N   MEZ     1      11.877 -25.580  -7.251  1.00  0.00    -0.225 N 
HETATM   10  O   MEZ     1       9.871 -26.632  -6.620  1.00  0.00    -0.245 OA
HETATM   11  H   MEZ     1       9.209 -28.445  -7.280  1.00  0.00     0.165 HD
BRANCH   9  12
HETATM   12  S   MEZ     1      11.685 -24.063  -6.533  1.00  0.00     0.232 S 
HETATM   13  O   MEZ     1      10.578 -23.362  -7.162  1.00  0.00    -0.206 OA
HETATM   14  O   MEZ     1      11.754 -24.196  -5.087  1.00  0.00    -0.206 OA
HETATM   15  C   MEZ     1      13.188 -23.278  -7.069  1.00  0.00     0.186 C 
ENDBRANCH   9  12
ENDBRANCH   1   2
BRANCH   1  16
HETATM   16  C   MEZ     1       9.019 -31.247  -6.958  1.00  0.00     0.245 C 
HETATM   17  O   MEZ     1       8.953 -32.475  -7.022  1.00  0.00    -0.271 OA
HETATM   18  N   MEZ     1       9.291 -30.541  -5.785  1.00  0.00    -0.344 N 
HETATM   19  H   MEZ     1       9.332 -29.527  -5.842  1.00  0.00     0.163 HD
BRANCH  18  20
HETATM   20  CA  MEZ     1       9.527 -31.195  -4.500  1.00  0.00     0.199 A 
HETATM   21  C   MEZ     1      10.322 -30.426  -3.435  1.00  0.00     0.160 A 
HETATM   22  S   MEZ     1      10.603 -28.645  -3.742  1.00  0.00    -0.135 SA
HETATM   23  N   MEZ     1       9.110 -30.438  -2.611  1.00  0.00    -0.219 NA
HETATM   24  C   MEZ     1       9.860 -28.202  -2.093  1.00  0.00     0.029 C 
HETATM   25  CA  MEZ     1       8.715 -29.226  -1.923  1.00  0.00     0.182 C 
HETATM   26  C   MEZ     1       9.325 -26.771  -2.155  1.00  0.00     0.029 C 
HETATM   27  C   MEZ     1      10.967 -28.304  -1.034  1.00  0.00     0.029 C 
HETATM   28  C   MEZ     1       8.343 -31.114  -3.515  1.00  0.00     0.227 A 
HETATM   29  O   MEZ     1       7.167 -31.395  -3.548  1.00  0.00    -0.277 OA
BRANCH  25  30
HETATM   30  C   MEZ     1       8.398 -29.602  -0.511  1.00  0.00     0.160 C 
HETATM   31  OXT MEZ     1       8.852 -30.572   0.077  1.00  0.00    -0.649 OA
BRANCH  30  32
HETATM   32  O   MEZ     1       7.530 -28.716   0.037  1.00  0.00    -0.775 OA
HETATM   33  H   MEZ     1       7.977 -27.887   0.311  1.00  0.00     0.167 HD
ENDBRANCH  30  32
ENDBRANCH  25  30
ENDBRANCH  18  20
ENDBRANCH   1  16
BRANCH   1  34
HETATM   34  C   MEZ     1       7.407 -30.066  -8.480  1.00  0.00    -0.026 A 
HETATM   35  C   MEZ     1       6.581 -31.098  -8.926  1.00  0.00     0.010 A 
HETATM   36  C   MEZ     1       5.240 -30.843  -9.209  1.00  0.00     0.001 A 
HETATM   37  C   MEZ     1       4.724 -29.558  -9.049  1.00  0.00     0.000 A 
HETATM   38  C   MEZ     1       5.550 -28.526  -8.605  1.00  0.00     0.001 A 
HETATM   39  C   MEZ     1       6.892 -28.780  -8.320  1.00  0.00     0.010 A 
ENDBRANCH   1  34
TORSDOF 7
ENDMDL
