REMARK  10 active torsions:
REMARK  status: ('A' for Active; 'I' for Inactive)
REMARK    1  A    between atoms: C2_3  and  N2_4 
REMARK       I    between atoms: N2_4  and  C7_13 
REMARK    2  A    between atoms: C4_7  and  O4_8 
REMARK    3  A    between atoms: O4_8  and  C1_16 
REMARK    4  A    between atoms: C5_9  and  C6_11 
REMARK    5  A    between atoms: C2_17  and  N2_18 
REMARK       I    between atoms: N2_18  and  C7_27 
REMARK    6  A    between atoms: C4_21  and  O4_22 
REMARK    7  A    between atoms: O4_22  and  C1_30 
REMARK    8  A    between atoms: C5_23  and  C6_25 
REMARK    9  A    between atoms: C2_31  and  N2_32 
REMARK       I    between atoms: N2_32  and  C7_41 
REMARK   10  A    between atoms: C5_37  and  C6_39 
ROOT
HETATM    1  C1  NAG B   2       3.070  82.272  30.817  1.00 24.54     0.262 C 
HETATM    2  C2  NAG B   2       2.581  83.137  32.125  1.00 38.18     0.195 C 
HETATM    3  C3  NAG B   2       3.239  82.519  33.399  1.00 40.28     0.209 C 
HETATM    4  O3  NAG B   2       2.701  83.175  34.559  1.00 44.52    -0.218 OA
HETATM    5  C4  NAG B   2       2.855  80.997  33.314  1.00 31.56     0.180 C 
HETATM    6  C5  NAG B   2       3.439  80.291  31.995  1.00 25.00     0.180 C 
HETATM    7  O5  NAG B   2       2.637  80.861  30.886  1.00 56.77    -0.327 OA
ENDROOT
BRANCH   1   8
HETATM    8  O4  NAG B   1       2.472  82.866  29.605  1.00 46.30    -0.327 OA
BRANCH   8   9
HETATM    9  C4  NAG B   1       3.148  82.885  28.186  1.00 41.63     0.180 C 
HETATM   10  C3  NAG B   1       2.207  82.026  27.270  1.00 14.31     0.209 C 
HETATM   11  C2  NAG B   1       2.561  82.302  25.823  1.00 29.05     0.198 C 
HETATM   12  O3  NAG B   1       2.408  80.654  27.638  1.00 28.14    -0.218 OA
HETATM   13  C1  NAG B   1       2.610  83.832  25.582  1.00 32.10     0.295 C 
HETATM   14  O1  NAG B   1       2.971  83.979  24.213  1.00 46.64    -0.188 OA
HETATM   15  O5  NAG B   1       3.786  84.325  26.335  1.00 32.95    -0.325 OA
HETATM   16  C5  NAG B   1       3.401  84.339  27.760  1.00 38.82     0.181 C 
BRANCH  11  17
HETATM   17  N2  NAG B   1       1.582  81.696  24.899  1.00 30.31    -0.232 NA
HETATM   18  C7  NAG B   1       1.841  80.604  24.138  1.00 19.61     0.252 C 
HETATM   19  O7  NAG B   1       2.873  80.108  24.148  1.00 24.37    -0.271 OA
HETATM   20  C8  NAG B   1       0.678  80.147  23.333  1.00 14.43     0.100 C 
ENDBRANCH  11  17
BRANCH  16  21
HETATM   21  C6  NAG B   1       4.535  84.992  28.512  1.00 50.43     0.214 C 
HETATM   22  O6  NAG B   1       5.880  84.407  28.183  1.00 38.95    -0.218 OA
ENDBRANCH  16  21
ENDBRANCH   8   9
ENDBRANCH   1   8
BRANCH   2  23
HETATM   23  N2  NAG B   2       2.967  84.549  32.034  1.00 47.13    -0.232 NA
HETATM   24  C7  NAG B   2       2.176  85.581  32.419  1.00 36.27     0.252 C 
HETATM   25  O7  NAG B   2       1.096  85.417  32.777  1.00 77.29    -0.271 OA
HETATM   26  C8  NAG B   2       2.825  86.924  32.343  1.00 25.48     0.100 C 
ENDBRANCH   2  23
BRANCH   6  27
HETATM   27  C6  NAG B   2       3.204  78.807  32.058  1.00 41.21     0.214 C 
HETATM   28  O6  NAG B   2       1.709  78.601  31.979  1.00 29.51    -0.218 OA
ENDBRANCH   6  27
BRANCH   5  29
HETATM   29  O4  NAG B   2       3.340  80.198  34.433  1.00 37.56    -0.327 OA
BRANCH  29  30
HETATM   30  C1  NAG B   3       2.784  79.475  35.565  1.00 31.25     0.262 C 
HETATM   31  C2  NAG B   3       3.766  78.946  36.607  1.00 50.86     0.195 C 
HETATM   32  C3  NAG B   3       3.048  78.059  37.574  1.00 27.28     0.212 C 
HETATM   33  O3  NAG B   3       3.887  77.884  38.733  1.00 49.98    -0.218 OA
HETATM   34  C4  NAG B   3       1.704  78.690  38.047  1.00 62.31     0.214 C 
HETATM   35  O4  NAG B   3       0.868  77.642  38.644  1.00 75.30    -0.218 OA
HETATM   36  C5  NAG B   3       0.862  79.335  36.927  1.00 37.66     0.184 C 
HETATM   37  O5  NAG B   3       1.681  80.204  36.139  1.00 55.96    -0.327 OA
BRANCH  31  38
HETATM   38  N2  NAG B   3       4.801  78.159  35.790  1.00 55.71    -0.232 NA
HETATM   39  C7  NAG B   3       6.113  78.460  35.784  1.00 64.76     0.252 C 
HETATM   40  O7  NAG B   3       6.502  79.484  36.140  1.00 66.12    -0.271 OA
HETATM   41  C8  NAG B   3       6.996  77.360  35.303  1.00 56.03     0.100 C 
ENDBRANCH  31  38
BRANCH  36  42
HETATM   42  C6  NAG B   3      -0.242  80.214  37.498  1.00 49.19     0.214 C 
HETATM   43  O6  NAG B   3      -0.524  81.373  36.655  1.00 68.92    -0.218 OA
ENDBRANCH  36  42
ENDBRANCH  29  30
ENDBRANCH   5  29
TORSDOF 10
