MODEL 1
REMARK VINA RESULT:    -6.964      0.000      0.000
REMARK INTER + INTRA:         -13.453
REMARK INTER:                 -11.035
REMARK INTRA:                  -2.418
REMARK UNBOUND:                -2.418
REMARK  10 active torsions:
REMARK  status: ('A' for Active; 'I' for Inactive)
REMARK    1  A    between atoms: C2_3  and  N2_4 
REMARK       I    between atoms: N2_4  and  C7_13 
REMARK    2  A    between atoms: C4_7  and  O4_8 
REMARK    3  A    between atoms: O4_8  and  C1_16 
REMARK    4  A    between atoms: C5_9  and  C6_11 
REMARK    5  A    between atoms: C2_17  and  N2_18 
REMARK       I    between atoms: N2_18  and  C7_27 
REMARK    6  A    between atoms: C4_21  and  O4_22 
REMARK    7  A    between atoms: O4_22  and  C1_30 
REMARK    8  A    between atoms: C5_23  and  C6_25 
REMARK    9  A    between atoms: C2_31  and  N2_32 
REMARK       I    between atoms: N2_32  and  C7_41 
REMARK   10  A    between atoms: C5_37  and  C6_39 
ROOT
HETATM    1  C1  NAG B   2       6.754  24.940  25.522  1.00 24.54     0.262 C 
HETATM    2  C2  NAG B   2       5.486  24.099  26.140  1.00 38.18     0.195 C 
HETATM    3  C3  NAG B   2       4.916  24.892  27.358  1.00 40.28     0.209 C 
HETATM    4  O3  NAG B   2       3.904  24.094  27.994  1.00 44.52    -0.218 OA
HETATM    5  C4  NAG B   2       6.176  25.134  28.267  1.00 31.56     0.180 C 
HETATM    6  C5  NAG B   2       7.307  26.000  27.526  1.00 25.00     0.180 C 
HETATM    7  O5  NAG B   2       7.856  25.086  26.496  1.00 56.77    -0.327 OA
ENDROOT
BRANCH   1   8
HETATM    8  O4  NAG B   1       7.283  24.209  24.353  1.00 46.30    -0.327 OA
BRANCH   8   9
HETATM    9  C4  NAG B   1       7.536  24.841  22.937  1.00 41.63     0.180 C 
HETATM   10  C3  NAG B   1       9.070  25.170  22.900  1.00 14.31     0.209 C 
HETATM   11  C2  NAG B   1       9.475  25.419  21.462  1.00 29.05     0.198 C 
HETATM   12  O3  NAG B   1       9.269  26.317  23.739  1.00 28.14    -0.218 OA
HETATM   13  C1  NAG B   1       8.959  24.263  20.568  1.00 32.10     0.295 C 
HETATM   14  O1  NAG B   1       9.368  24.605  19.249  1.00 46.64    -0.188 OA
HETATM   15  O5  NAG B   1       7.483  24.391  20.549  1.00 32.95    -0.325 OA
HETATM   16  C5  NAG B   1       6.998  23.896  21.852  1.00 38.82     0.181 C 
BRANCH  11  17
HETATM   17  N2  NAG B   1      10.940  25.525  21.320  1.00 30.31    -0.232 NA
HETATM   18  C7  NAG B   1      11.592  26.691  21.085  1.00 19.61     0.252 C 
HETATM   19  O7  NAG B   1      11.017  27.671  20.944  1.00 24.37    -0.271 OA
HETATM   20  C8  NAG B   1      13.071  26.551  21.042  1.00 14.43     0.100 C 
ENDBRANCH  11  17
BRANCH  16  21
HETATM   21  C6  NAG B   1       5.491  23.872  21.775  1.00 50.43     0.214 C 
HETATM   22  O6  NAG B   1       4.859  25.195  22.108  1.00 38.95    -0.218 OA
ENDBRANCH  16  21
ENDBRANCH   8   9
ENDBRANCH   1   8
BRANCH   2  23
HETATM   23  N2  NAG B   2       4.413  23.909  25.159  1.00 47.13    -0.232 NA
HETATM   24  C7  NAG B   2       3.707  22.760  25.014  1.00 36.27     0.252 C 
HETATM   25  O7  NAG B   2       3.962  21.812  25.612  1.00 77.29    -0.271 OA
HETATM   26  C8  NAG B   2       2.585  22.839  24.031  1.00 25.48     0.100 C 
ENDBRANCH   2  23
BRANCH   6  27
HETATM   27  C6  NAG B   2       8.399  26.358  28.496  1.00 41.21     0.214 C 
HETATM   28  O6  NAG B   2       9.379  25.208  28.489  1.00 29.51    -0.218 OA
ENDBRANCH   6  27
BRANCH   5  29
HETATM   29  O4  NAG B   2       5.888  25.844  29.507  1.00 37.56    -0.327 OA
BRANCH  29  30
HETATM   30  C1  NAG B   3       4.734  26.421  30.178  1.00 31.25     0.262 C 
HETATM   31  C2  NAG B   3       3.910  27.442  29.397  1.00 50.86     0.195 C 
HETATM   32  C3  NAG B   3       2.904  28.078  30.303  1.00 27.28     0.212 C 
HETATM   33  O3  NAG B   3       1.915  28.736  29.486  1.00 49.98    -0.218 OA
HETATM   34  C4  NAG B   3       2.171  27.022  31.184  1.00 62.31     0.214 C 
HETATM   35  O4  NAG B   3       1.522  27.706  32.308  1.00 75.30    -0.218 OA
HETATM   36  C5  NAG B   3       3.087  25.944  31.799  1.00 37.66     0.184 C 
HETATM   37  O5  NAG B   3       3.935  25.389  30.789  1.00 55.96    -0.327 OA
BRANCH  31  38
HETATM   38  N2  NAG B   3       4.941  28.465  28.901  1.00 55.71    -0.232 NA
HETATM   39  C7  NAG B   3       4.988  28.901  27.628  1.00 64.76     0.252 C 
HETATM   40  O7  NAG B   3       4.469  28.331  26.772  1.00 66.12    -0.271 OA
HETATM   41  C8  NAG B   3       5.740  30.174  27.439  1.00 56.03     0.100 C 
ENDBRANCH  31  38
BRANCH  36  42
HETATM   42  C6  NAG B   3       2.280  24.776  32.348  1.00 49.19     0.214 C 
HETATM   43  O6  NAG B   3       1.980  24.925  33.769  1.00 68.92    -0.218 OA
ENDBRANCH  36  42
ENDBRANCH  29  30
ENDBRANCH   5  29
TORSDOF 10
ENDMDL
MODEL 2
REMARK VINA RESULT:    -6.542      2.601      9.069
REMARK INTER + INTRA:         -12.785
REMARK INTER:                 -10.569
REMARK INTRA:                  -2.216
REMARK UNBOUND:                -2.418
REMARK  10 active torsions:
REMARK  status: ('A' for Active; 'I' for Inactive)
REMARK    1  A    between atoms: C2_3  and  N2_4 
REMARK       I    between atoms: N2_4  and  C7_13 
REMARK    2  A    between atoms: C4_7  and  O4_8 
REMARK    3  A    between atoms: O4_8  and  C1_16 
REMARK    4  A    between atoms: C5_9  and  C6_11 
REMARK    5  A    between atoms: C2_17  and  N2_18 
REMARK       I    between atoms: N2_18  and  C7_27 
REMARK    6  A    between atoms: C4_21  and  O4_22 
REMARK    7  A    between atoms: O4_22  and  C1_30 
REMARK    8  A    between atoms: C5_23  and  C6_25 
REMARK    9  A    between atoms: C2_31  and  N2_32 
REMARK       I    between atoms: N2_32  and  C7_41 
REMARK   10  A    between atoms: C5_37  and  C6_39 
ROOT
HETATM    1  C1  NAG B   2       5.215  26.345  30.041  1.00 24.54     0.262 C 
HETATM    2  C2  NAG B   2       3.914  26.011  29.095  1.00 38.18     0.195 C 
HETATM    3  C3  NAG B   2       4.261  24.784  28.195  1.00 40.28     0.209 C 
HETATM    4  O3  NAG B   2       3.186  24.579  27.263  1.00 44.52    -0.218 OA
HETATM    5  C4  NAG B   2       5.609  25.201  27.503  1.00 31.56     0.180 C 
HETATM    6  C5  NAG B   2       6.788  25.456  28.563  1.00 25.00     0.180 C 
HETATM    7  O5  NAG B   2       6.404  26.715  29.246  1.00 56.77    -0.327 OA
ENDROOT
BRANCH   1   8
HETATM    8  O4  NAG B   1       4.885  27.489  30.914  1.00 46.30    -0.327 OA
BRANCH   8   9
HETATM    9  C4  NAG B   1       5.405  28.958  30.706  1.00 41.63     0.180 C 
HETATM   10  C3  NAG B   1       4.231  29.712  29.988  1.00 14.31     0.209 C 
HETATM   11  C2  NAG B   1       4.482  31.203  30.092  1.00 29.05     0.198 C 
HETATM   12  O3  NAG B   1       4.207  29.248  28.631  1.00 28.14    -0.218 OA
HETATM   13  C1  NAG B   1       4.793  31.576  31.564  1.00 32.10     0.295 C 
HETATM   14  O1  NAG B   1       5.035  32.979  31.546  1.00 46.64    -0.188 OA
HETATM   15  O5  NAG B   1       6.111  30.973  31.867  1.00 32.95    -0.325 OA
HETATM   16  C5  NAG B   1       5.882  29.526  32.051  1.00 38.82     0.181 C 
BRANCH  11  17
HETATM   17  N2  NAG B   1       3.318  31.983  29.629  1.00 30.31    -0.232 NA
HETATM   18  C7  NAG B   1       3.252  32.591  28.418  1.00 19.61     0.252 C 
HETATM   19  O7  NAG B   1       4.137  32.557  27.692  1.00 24.37    -0.271 OA
HETATM   20  C8  NAG B   1       1.954  33.266  28.158  1.00 14.43     0.100 C 
ENDBRANCH  11  17
BRANCH  16  21
HETATM   21  C6  NAG B   1       7.189  28.934  32.518  1.00 50.43     0.214 C 
HETATM   22  O6  NAG B   1       7.013  27.743  33.418  1.00 38.95    -0.218 OA
ENDBRANCH  16  21
ENDBRANCH   8   9
ENDBRANCH   1   8
BRANCH   2  23
HETATM   23  N2  NAG B   2       2.720  25.692  29.885  1.00 47.13    -0.232 NA
HETATM   24  C7  NAG B   2       1.581  26.429  29.876  1.00 36.27     0.252 C 
HETATM   25  O7  NAG B   2       1.504  27.419  29.296  1.00 77.29    -0.271 OA
HETATM   26  C8  NAG B   2       0.457  25.847  30.668  1.00 25.48     0.100 C 
ENDBRANCH   2  23
BRANCH   6  27
HETATM   27  C6  NAG B   2       8.092  25.667  27.844  1.00 41.21     0.214 C 
HETATM   28  O6  NAG B   2       8.968  24.482  28.179  1.00 29.51    -0.218 OA
ENDBRANCH   6  27
BRANCH   5  29
HETATM   29  O4  NAG B   2       6.131  24.209  26.570  1.00 37.56    -0.327 OA
BRANCH  29  30
HETATM   30  C1  NAG B   3       6.457  24.123  25.156  1.00 31.25     0.262 C 
HETATM   31  C2  NAG B   3       5.292  24.057  24.172  1.00 50.86     0.195 C 
HETATM   32  C3  NAG B   3       5.805  23.762  22.799  1.00 27.28     0.212 C 
HETATM   33  O3  NAG B   3       4.764  24.073  21.852  1.00 49.98    -0.218 OA
HETATM   34  C4  NAG B   3       7.048  24.635  22.448  1.00 62.31     0.214 C 
HETATM   35  O4  NAG B   3       7.743  24.037  21.302  1.00 75.30    -0.218 OA
HETATM   36  C5  NAG B   3       8.092  24.758  23.577  1.00 37.66     0.184 C 
HETATM   37  O5  NAG B   3       7.445  25.111  24.803  1.00 55.96    -0.327 OA
BRANCH  31  38
HETATM   38  N2  NAG B   3       4.414  22.911  24.698  1.00 55.71    -0.232 NA
HETATM   39  C7  NAG B   3       3.096  22.821  24.443  1.00 64.76     0.252 C 
HETATM   40  O7  NAG B   3       2.485  23.726  24.077  1.00 66.12    -0.271 OA
HETATM   41  C8  NAG B   3       2.518  21.463  24.654  1.00 56.03     0.100 C 
ENDBRANCH  31  38
BRANCH  36  42
HETATM   42  C6  NAG B   3       9.084  25.878  23.296  1.00 49.19     0.214 C 
HETATM   43  O6  NAG B   3       8.553  27.194  23.645  1.00 68.92    -0.218 OA
ENDBRANCH  36  42
ENDBRANCH  29  30
ENDBRANCH   5  29
TORSDOF 10
ENDMDL
MODEL 3
REMARK VINA RESULT:    -6.466      2.366      9.244
REMARK INTER + INTRA:         -12.664
REMARK INTER:                 -10.114
REMARK INTRA:                  -2.550
REMARK UNBOUND:                -2.418
REMARK  10 active torsions:
REMARK  status: ('A' for Active; 'I' for Inactive)
REMARK    1  A    between atoms: C2_3  and  N2_4 
REMARK       I    between atoms: N2_4  and  C7_13 
REMARK    2  A    between atoms: C4_7  and  O4_8 
REMARK    3  A    between atoms: O4_8  and  C1_16 
REMARK    4  A    between atoms: C5_9  and  C6_11 
REMARK    5  A    between atoms: C2_17  and  N2_18 
REMARK       I    between atoms: N2_18  and  C7_27 
REMARK    6  A    between atoms: C4_21  and  O4_22 
REMARK    7  A    between atoms: O4_22  and  C1_30 
REMARK    8  A    between atoms: C5_23  and  C6_25 
REMARK    9  A    between atoms: C2_31  and  N2_32 
REMARK       I    between atoms: N2_32  and  C7_41 
REMARK   10  A    between atoms: C5_37  and  C6_39 
ROOT
HETATM    1  C1  NAG B   2       7.042  25.022  26.734  1.00 24.54     0.262 C 
HETATM    2  C2  NAG B   2       8.624  24.690  27.026  1.00 38.18     0.195 C 
HETATM    3  C3  NAG B   2       9.471  25.239  25.835  1.00 40.28     0.209 C 
HETATM    4  O3  NAG B   2      10.836  24.824  26.010  1.00 44.52    -0.218 OA
HETATM    5  C4  NAG B   2       8.788  24.604  24.570  1.00 31.56     0.180 C 
HETATM    6  C5  NAG B   2       7.255  25.056  24.410  1.00 25.00     0.180 C 
HETATM    7  O5  NAG B   2       6.548  24.357  25.510  1.00 56.77    -0.327 OA
ENDROOT
BRANCH   1   8
HETATM    8  O4  NAG B   1       6.237  24.528  27.869  1.00 46.30    -0.327 OA
BRANCH   8   9
HETATM    9  C4  NAG B   1       5.102  25.344  28.587  1.00 41.63     0.180 C 
HETATM   10  C3  NAG B   1       5.792  26.663  29.081  1.00 14.31     0.209 C 
HETATM   11  C2  NAG B   1       4.714  27.667  29.437  1.00 29.05     0.198 C 
HETATM   12  O3  NAG B   1       6.612  26.309  30.204  1.00 28.14    -0.218 OA
HETATM   13  C1  NAG B   1       3.697  27.772  28.273  1.00 32.10     0.295 C 
HETATM   14  O1  NAG B   1       2.724  28.712  28.715  1.00 46.64    -0.188 OA
HETATM   15  O5  NAG B   1       2.979  26.476  28.242  1.00 32.95    -0.325 OA
HETATM   16  C5  NAG B   1       3.903  25.495  27.639  1.00 38.82     0.181 C 
BRANCH  11  17
HETATM   17  N2  NAG B   1       5.283  29.002  29.706  1.00 30.31    -0.232 NA
HETATM   18  C7  NAG B   1       5.368  29.548  30.944  1.00 19.61     0.252 C 
HETATM   19  O7  NAG B   1       4.957  29.000  31.862  1.00 24.37    -0.271 OA
HETATM   20  C8  NAG B   1       6.032  30.878  30.967  1.00 14.43     0.100 C 
ENDBRANCH  11  17
BRANCH  16  21
HETATM   21  C6  NAG B   1       3.122  24.216  27.456  1.00 50.43     0.214 C 
HETATM   22  O6  NAG B   1       3.428  23.514  26.163  1.00 38.95    -0.218 OA
ENDBRANCH  16  21
ENDBRANCH   8   9
ENDBRANCH   1   8
BRANCH   2  23
HETATM   23  N2  NAG B   2       9.102  25.308  28.267  1.00 47.13    -0.232 NA
HETATM   24  C7  NAG B   2       9.599  24.614  29.321  1.00 36.27     0.252 C 
HETATM   25  O7  NAG B   2       9.605  23.465  29.343  1.00 77.29    -0.271 OA
HETATM   26  C8  NAG B   2      10.132  25.463  30.429  1.00 25.48     0.100 C 
ENDBRANCH   2  23
BRANCH   6  27
HETATM   27  C6  NAG B   2       6.711  24.574  23.094  1.00 41.21     0.214 C 
HETATM   28  O6  NAG B   2       5.325  24.037  23.368  1.00 29.51    -0.218 OA
ENDBRANCH   6  27
BRANCH   5  29
HETATM   29  O4  NAG B   2       9.432  24.951  23.309  1.00 37.56    -0.327 OA
BRANCH  29  30
HETATM   30  C1  NAG B   3      10.140  26.083  22.733  1.00 31.25     0.262 C 
HETATM   31  C2  NAG B   3       9.973  26.324  21.235  1.00 50.86     0.195 C 
HETATM   32  C3  NAG B   3      10.926  27.385  20.784  1.00 27.28     0.212 C 
HETATM   33  O3  NAG B   3      10.499  27.853  19.489  1.00 49.98    -0.218 OA
HETATM   34  C4  NAG B   3      10.933  28.604  21.755  1.00 62.31     0.214 C 
HETATM   35  O4  NAG B   3      12.140  29.402  21.511  1.00 75.30    -0.218 OA
HETATM   36  C5  NAG B   3      10.946  28.239  23.253  1.00 37.66     0.184 C 
HETATM   37  O5  NAG B   3       9.933  27.267  23.528  1.00 55.96    -0.327 OA
BRANCH  31  38
HETATM   38  N2  NAG B   3      10.301  24.969  20.592  1.00 55.71    -0.232 NA
HETATM   39  C7  NAG B   3       9.413  24.270  19.861  1.00 64.76     0.252 C 
HETATM   40  O7  NAG B   3       8.282  24.483  19.914  1.00 66.12    -0.271 OA
HETATM   41  C8  NAG B   3      10.020  23.231  18.981  1.00 56.03     0.100 C 
ENDBRANCH  31  38
BRANCH  36  42
HETATM   42  C6  NAG B   3      10.609  29.443  24.122  1.00 49.19     0.214 C 
HETATM   43  O6  NAG B   3       9.261  29.948  23.876  1.00 68.92    -0.218 OA
ENDBRANCH  36  42
ENDBRANCH  29  30
ENDBRANCH   5  29
TORSDOF 10
ENDMDL
MODEL 4
REMARK VINA RESULT:    -6.456      2.288     10.052
REMARK INTER + INTRA:         -12.648
REMARK INTER:                 -10.208
REMARK INTRA:                  -2.440
REMARK UNBOUND:                -2.418
REMARK  10 active torsions:
REMARK  status: ('A' for Active; 'I' for Inactive)
REMARK    1  A    between atoms: C2_3  and  N2_4 
REMARK       I    between atoms: N2_4  and  C7_13 
REMARK    2  A    between atoms: C4_7  and  O4_8 
REMARK    3  A    between atoms: O4_8  and  C1_16 
REMARK    4  A    between atoms: C5_9  and  C6_11 
REMARK    5  A    between atoms: C2_17  and  N2_18 
REMARK       I    between atoms: N2_18  and  C7_27 
REMARK    6  A    between atoms: C4_21  and  O4_22 
REMARK    7  A    between atoms: O4_22  and  C1_30 
REMARK    8  A    between atoms: C5_23  and  C6_25 
REMARK    9  A    between atoms: C2_31  and  N2_32 
REMARK       I    between atoms: N2_32  and  C7_41 
REMARK   10  A    between atoms: C5_37  and  C6_39 
ROOT
HETATM    1  C1  NAG B   2       7.652  24.753  25.438  1.00 24.54     0.262 C 
HETATM    2  C2  NAG B   2       9.270  24.952  25.638  1.00 38.18     0.195 C 
HETATM    3  C3  NAG B   2       9.810  25.820  24.458  1.00 40.28     0.209 C 
HETATM    4  O3  NAG B   2      11.243  25.874  24.544  1.00 44.52    -0.218 OA
HETATM    5  C4  NAG B   2       9.294  25.068  23.177  1.00 31.56     0.180 C 
HETATM    6  C5  NAG B   2       7.690  24.992  23.117  1.00 25.00     0.180 C 
HETATM    7  O5  NAG B   2       7.326  24.035  24.189  1.00 56.77    -0.327 OA
ENDROOT
BRANCH   1   8
HETATM    8  O4  NAG B   1       7.130  23.954  26.565  1.00 46.30    -0.327 OA
BRANCH   8   9
HETATM    9  C4  NAG B   1       5.889  24.347  27.446  1.00 41.63     0.180 C 
HETATM   10  C3  NAG B   1       6.349  25.602  28.269  1.00 14.31     0.209 C 
HETATM   11  C2  NAG B   1       5.121  26.275  28.847  1.00 29.05     0.198 C 
HETATM   12  O3  NAG B   1       7.250  25.129  29.280  1.00 28.14    -0.218 OA
HETATM   13  C1  NAG B   1       4.068  26.484  27.730  1.00 32.10     0.295 C 
HETATM   14  O1  NAG B   1       2.957  27.094  28.379  1.00 46.64    -0.188 OA
HETATM   15  O5  NAG B   1       3.591  25.132  27.362  1.00 32.95    -0.325 OA
HETATM   16  C5  NAG B   1       4.656  24.514  26.547  1.00 38.82     0.181 C 
BRANCH  11  17
HETATM   17  N2  NAG B   1       5.452  27.579  29.454  1.00 30.31    -0.232 NA
HETATM   18  C7  NAG B   1       5.485  27.800  30.792  1.00 19.61     0.252 C 
HETATM   19  O7  NAG B   1       5.215  26.971  31.535  1.00 24.37    -0.271 OA
HETATM   20  C8  NAG B   1       5.902  29.179  31.160  1.00 14.43     0.100 C 
ENDBRANCH  11  17
BRANCH  16  21
HETATM   21  C6  NAG B   1       4.109  23.204  26.034  1.00 50.43     0.214 C 
HETATM   22  O6  NAG B   1       4.264  23.037  24.548  1.00 38.95    -0.218 OA
ENDBRANCH  16  21
ENDBRANCH   8   9
ENDBRANCH   1   8
BRANCH   2  23
HETATM   23  N2  NAG B   2       9.597  25.620  26.902  1.00 47.13    -0.232 NA
HETATM   24  C7  NAG B   2      10.368  25.074  27.875  1.00 36.27     0.252 C 
HETATM   25  O7  NAG B   2      10.760  23.996  27.805  1.00 77.29    -0.271 OA
HETATM   26  C8  NAG B   2      10.661  25.986  29.021  1.00 25.48     0.100 C 
ENDBRANCH   2  23
BRANCH   6  27
HETATM   27  C6  NAG B   2       7.251  24.434  21.791  1.00 41.21     0.214 C 
HETATM   28  O6  NAG B   2       5.742  24.515  21.766  1.00 29.51    -0.218 OA
ENDBRANCH   6  27
BRANCH   5  29
HETATM   29  O4  NAG B   2       9.704  25.684  21.921  1.00 37.56    -0.327 OA
BRANCH  29  30
HETATM   30  C1  NAG B   3      10.928  25.876  21.162  1.00 31.25     0.262 C 
HETATM   31  C2  NAG B   3      10.801  25.979  19.644  1.00 50.86     0.195 C 
HETATM   32  C3  NAG B   3      12.161  25.962  19.020  1.00 27.28     0.212 C 
HETATM   33  O3  NAG B   3      12.039  26.431  17.663  1.00 49.98    -0.218 OA
HETATM   34  C4  NAG B   3      13.149  26.908  19.766  1.00 62.31     0.214 C 
HETATM   35  O4  NAG B   3      14.524  26.553  19.393  1.00 75.30    -0.218 OA
HETATM   36  C5  NAG B   3      13.082  26.830  21.306  1.00 37.66     0.184 C 
HETATM   37  O5  NAG B   3      11.723  26.931  21.740  1.00 55.96    -0.327 OA
BRANCH  31  38
HETATM   38  N2  NAG B   3       9.988  24.739  19.245  1.00 55.71    -0.232 NA
HETATM   39  C7  NAG B   3       9.093  24.742  18.239  1.00 64.76     0.252 C 
HETATM   40  O7  NAG B   3       8.662  25.722  17.814  1.00 66.12    -0.271 OA
HETATM   41  C8  NAG B   3       8.736  23.388  17.727  1.00 56.03     0.100 C 
ENDBRANCH  31  38
BRANCH  36  42
HETATM   42  C6  NAG B   3      13.809  28.001  21.953  1.00 49.19     0.214 C 
HETATM   43  O6  NAG B   3      13.747  27.958  23.412  1.00 68.92    -0.218 OA
ENDBRANCH  36  42
ENDBRANCH  29  30
ENDBRANCH   5  29
TORSDOF 10
ENDMDL
MODEL 5
REMARK VINA RESULT:    -6.410      2.286     10.066
REMARK INTER + INTRA:         -12.576
REMARK INTER:                 -10.259
REMARK INTRA:                  -2.317
REMARK UNBOUND:                -2.418
REMARK  10 active torsions:
REMARK  status: ('A' for Active; 'I' for Inactive)
REMARK    1  A    between atoms: C2_3  and  N2_4 
REMARK       I    between atoms: N2_4  and  C7_13 
REMARK    2  A    between atoms: C4_7  and  O4_8 
REMARK    3  A    between atoms: O4_8  and  C1_16 
REMARK    4  A    between atoms: C5_9  and  C6_11 
REMARK    5  A    between atoms: C2_17  and  N2_18 
REMARK       I    between atoms: N2_18  and  C7_27 
REMARK    6  A    between atoms: C4_21  and  O4_22 
REMARK    7  A    between atoms: O4_22  and  C1_30 
REMARK    8  A    between atoms: C5_23  and  C6_25 
REMARK    9  A    between atoms: C2_31  and  N2_32 
REMARK       I    between atoms: N2_32  and  C7_41 
REMARK   10  A    between atoms: C5_37  and  C6_39 
ROOT
HETATM    1  C1  NAG B   2       7.604  24.810  25.374  1.00 24.54     0.262 C 
HETATM    2  C2  NAG B   2       9.227  24.983  25.558  1.00 38.18     0.195 C 
HETATM    3  C3  NAG B   2       9.750  25.943  24.443  1.00 40.28     0.209 C 
HETATM    4  O3  NAG B   2      11.185  25.983  24.505  1.00 44.52    -0.218 OA
HETATM    5  C4  NAG B   2       9.205  25.302  23.115  1.00 31.56     0.180 C 
HETATM    6  C5  NAG B   2       7.601  25.239  23.079  1.00 25.00     0.180 C 
HETATM    7  O5  NAG B   2       7.250  24.199  24.076  1.00 56.77    -0.327 OA
ENDROOT
BRANCH   1   8
HETATM    8  O4  NAG B   1       7.098  23.924  26.440  1.00 46.30    -0.327 OA
BRANCH   8   9
HETATM    9  C4  NAG B   1       5.885  24.255  27.384  1.00 41.63     0.180 C 
HETATM   10  C3  NAG B   1       6.332  25.518  28.201  1.00 14.31     0.209 C 
HETATM   11  C2  NAG B   1       5.107  26.133  28.845  1.00 29.05     0.198 C 
HETATM   12  O3  NAG B   1       7.299  25.071  29.162  1.00 28.14    -0.218 OA
HETATM   13  C1  NAG B   1       3.994  26.312  27.782  1.00 32.10     0.295 C 
HETATM   14  O1  NAG B   1       2.892  26.868  28.490  1.00 46.64    -0.188 OA
HETATM   15  O5  NAG B   1       3.555  24.945  27.418  1.00 32.95    -0.325 OA
HETATM   16  C5  NAG B   1       4.605  24.381  26.546  1.00 38.82     0.181 C 
BRANCH  11  17
HETATM   17  N2  NAG B   1       5.412  27.443  29.453  1.00 30.31    -0.232 NA
HETATM   18  C7  NAG B   1       5.425  27.668  30.791  1.00 19.61     0.252 C 
HETATM   19  O7  NAG B   1       5.155  26.838  31.532  1.00 24.37    -0.271 OA
HETATM   20  C8  NAG B   1       5.818  29.053  31.160  1.00 14.43     0.100 C 
ENDBRANCH  11  17
BRANCH  16  21
HETATM   21  C6  NAG B   1       4.088  23.056  26.042  1.00 50.43     0.214 C 
HETATM   22  O6  NAG B   1       4.399  22.809  24.592  1.00 38.95    -0.218 OA
ENDBRANCH  16  21
ENDBRANCH   8   9
ENDBRANCH   1   8
BRANCH   2  23
HETATM   23  N2  NAG B   2       9.582  25.544  26.866  1.00 47.13    -0.232 NA
HETATM   24  C7  NAG B   2      10.433  24.954  27.742  1.00 36.27     0.252 C 
HETATM   25  O7  NAG B   2      10.881  23.914  27.545  1.00 77.29    -0.271 OA
HETATM   26  C8  NAG B   2      10.734  25.766  28.959  1.00 25.48     0.100 C 
ENDBRANCH   2  23
BRANCH   6  27
HETATM   27  C6  NAG B   2       7.133  24.794  21.721  1.00 41.21     0.214 C 
HETATM   28  O6  NAG B   2       5.680  24.403  21.869  1.00 29.51    -0.218 OA
ENDBRANCH   6  27
BRANCH   5  29
HETATM   29  O4  NAG B   2       9.595  26.016  21.906  1.00 37.56    -0.327 OA
BRANCH  29  30
HETATM   30  C1  NAG B   3      10.404  25.775  20.722  1.00 31.25     0.262 C 
HETATM   31  C2  NAG B   3      11.920  25.863  20.881  1.00 50.86     0.195 C 
HETATM   32  C3  NAG B   3      12.573  25.797  19.537  1.00 27.28     0.212 C 
HETATM   33  O3  NAG B   3      13.972  25.505  19.731  1.00 49.98    -0.218 OA
HETATM   34  C4  NAG B   3      11.966  24.665  18.655  1.00 62.31     0.214 C 
HETATM   35  O4  NAG B   3      12.333  24.901  17.254  1.00 75.30    -0.218 OA
HETATM   36  C5  NAG B   3      10.427  24.570  18.693  1.00 37.66     0.184 C 
HETATM   37  O5  NAG B   3       9.970  24.577  20.048  1.00 55.96    -0.327 OA
BRANCH  31  38
HETATM   38  N2  NAG B   3      12.154  27.225  21.549  1.00 55.71    -0.232 NA
HETATM   39  C7  NAG B   3      13.221  27.487  22.326  1.00 64.76     0.252 C 
HETATM   40  O7  NAG B   3      13.862  26.645  22.780  1.00 66.12    -0.271 OA
HETATM   41  C8  NAG B   3      13.501  28.938  22.521  1.00 56.03     0.100 C 
ENDBRANCH  31  38
BRANCH  36  42
HETATM   42  C6  NAG B   3       9.936  23.258  18.098  1.00 49.19     0.214 C 
HETATM   43  O6  NAG B   3       8.765  23.436  17.243  1.00 68.92    -0.218 OA
ENDBRANCH  36  42
ENDBRANCH  29  30
ENDBRANCH   5  29
TORSDOF 10
ENDMDL
MODEL 6
REMARK VINA RESULT:    -6.305      2.597      5.631
REMARK INTER + INTRA:         -12.409
REMARK INTER:                 -10.263
REMARK INTRA:                  -2.146
REMARK UNBOUND:                -2.418
REMARK  10 active torsions:
REMARK  status: ('A' for Active; 'I' for Inactive)
REMARK    1  A    between atoms: C2_3  and  N2_4 
REMARK       I    between atoms: N2_4  and  C7_13 
REMARK    2  A    between atoms: C4_7  and  O4_8 
REMARK    3  A    between atoms: O4_8  and  C1_16 
REMARK    4  A    between atoms: C5_9  and  C6_11 
REMARK    5  A    between atoms: C2_17  and  N2_18 
REMARK       I    between atoms: N2_18  and  C7_27 
REMARK    6  A    between atoms: C4_21  and  O4_22 
REMARK    7  A    between atoms: O4_22  and  C1_30 
REMARK    8  A    between atoms: C5_23  and  C6_25 
REMARK    9  A    between atoms: C2_31  and  N2_32 
REMARK       I    between atoms: N2_32  and  C7_41 
REMARK   10  A    between atoms: C5_37  and  C6_39 
ROOT
HETATM    1  C1  NAG B   2       9.688  25.401  22.451  1.00 24.54     0.262 C 
HETATM    2  C2  NAG B   2      10.054  26.057  23.912  1.00 38.18     0.195 C 
HETATM    3  C3  NAG B   2       9.446  25.149  25.026  1.00 40.28     0.209 C 
HETATM    4  O3  NAG B   2       9.633  25.792  26.298  1.00 44.52    -0.218 OA
HETATM    5  C4  NAG B   2       7.934  25.018  24.615  1.00 31.56     0.180 C 
HETATM    6  C5  NAG B   2       7.749  24.326  23.178  1.00 25.00     0.180 C 
HETATM    7  O5  NAG B   2       8.231  25.343  22.213  1.00 56.77    -0.327 OA
ENDROOT
BRANCH   1   8
HETATM    8  O4  NAG B   1      10.282  26.241  21.392  1.00 46.30    -0.327 OA
BRANCH   8   9
HETATM    9  C4  NAG B   1      11.223  25.714  20.248  1.00 41.63     0.180 C 
HETATM   10  C3  NAG B   1      12.681  25.894  20.799  1.00 14.31     0.209 C 
HETATM   11  C2  NAG B   1      13.624  25.071  19.944  1.00 29.05     0.198 C 
HETATM   12  O3  NAG B   1      12.973  27.297  20.752  1.00 28.14    -0.218 OA
HETATM   13  C1  NAG B   1      13.073  23.629  19.803  1.00 32.10     0.295 C 
HETATM   14  O1  NAG B   1      14.011  22.956  18.970  1.00 46.64    -0.188 OA
HETATM   15  O5  NAG B   1      11.850  23.740  18.976  1.00 32.95    -0.325 OA
HETATM   16  C5  NAG B   1      10.796  24.293  19.850  1.00 38.82     0.181 C 
BRANCH  11  17
HETATM   17  N2  NAG B   1      14.979  25.018  20.525  1.00 30.31    -0.232 NA
HETATM   18  C7  NAG B   1      16.052  25.654  19.993  1.00 19.61     0.252 C 
HETATM   19  O7  NAG B   1      15.963  26.249  19.019  1.00 24.37    -0.271 OA
HETATM   20  C8  NAG B   1      17.296  25.499  20.792  1.00 14.43     0.100 C 
ENDBRANCH  11  17
BRANCH  16  21
HETATM   21  C6  NAG B   1       9.510  24.255  19.062  1.00 50.43     0.214 C 
HETATM   22  O6  NAG B   1       8.549  23.205  19.544  1.00 38.95    -0.218 OA
ENDBRANCH  16  21
ENDBRANCH   8   9
ENDBRANCH   1   8
BRANCH   2  23
HETATM   23  N2  NAG B   2      11.501  26.162  24.128  1.00 47.13    -0.232 NA
HETATM   24  C7  NAG B   2      12.173  27.335  24.230  1.00 36.27     0.252 C 
HETATM   25  O7  NAG B   2      11.653  28.348  24.073  1.00 77.29    -0.271 OA
HETATM   26  C8  NAG B   2      13.622  27.195  24.566  1.00 25.48     0.100 C 
ENDBRANCH   2  23
BRANCH   6  27
HETATM   27  C6  NAG B   2       6.292  24.057  22.919  1.00 41.21     0.214 C 
HETATM   28  O6  NAG B   2       5.630  25.403  22.730  1.00 29.51    -0.218 OA
ENDBRANCH   6  27
BRANCH   5  29
HETATM   29  O4  NAG B   2       7.133  24.224  25.538  1.00 37.56    -0.327 OA
BRANCH  29  30
HETATM   30  C1  NAG B   3       5.867  24.339  26.244  1.00 31.25     0.262 C 
HETATM   31  C2  NAG B   3       5.500  25.712  26.802  1.00 50.86     0.195 C 
HETATM   32  C3  NAG B   3       4.285  25.598  27.667  1.00 27.28     0.212 C 
HETATM   33  O3  NAG B   3       3.749  26.921  27.867  1.00 49.98    -0.218 OA
HETATM   34  C4  NAG B   3       3.179  24.729  26.995  1.00 62.31     0.214 C 
HETATM   35  O4  NAG B   3       2.211  24.314  28.017  1.00 75.30    -0.218 OA
HETATM   36  C5  NAG B   3       3.688  23.437  26.325  1.00 37.66     0.184 C 
HETATM   37  O5  NAG B   3       4.806  23.731  25.482  1.00 55.96    -0.327 OA
BRANCH  31  38
HETATM   38  N2  NAG B   3       6.730  26.131  27.620  1.00 55.71    -0.232 NA
HETATM   39  C7  NAG B   3       7.121  27.413  27.752  1.00 64.76     0.252 C 
HETATM   40  O7  NAG B   3       6.752  28.236  27.036  1.00 66.12    -0.271 OA
HETATM   41  C8  NAG B   3       8.039  27.663  28.899  1.00 56.03     0.100 C 
ENDBRANCH  31  38
BRANCH  36  42
HETATM   42  C6  NAG B   3       2.631  22.830  25.413  1.00 49.19     0.214 C 
HETATM   43  O6  NAG B   3       2.828  23.193  24.012  1.00 68.92    -0.218 OA
ENDBRANCH  36  42
ENDBRANCH  29  30
ENDBRANCH   5  29
TORSDOF 10
ENDMDL
MODEL 7
REMARK VINA RESULT:    -6.238      2.058     10.025
REMARK INTER + INTRA:         -12.303
REMARK INTER:                 -10.702
REMARK INTRA:                  -1.601
REMARK UNBOUND:                -2.418
REMARK  10 active torsions:
REMARK  status: ('A' for Active; 'I' for Inactive)
REMARK    1  A    between atoms: C2_3  and  N2_4 
REMARK       I    between atoms: N2_4  and  C7_13 
REMARK    2  A    between atoms: C4_7  and  O4_8 
REMARK    3  A    between atoms: O4_8  and  C1_16 
REMARK    4  A    between atoms: C5_9  and  C6_11 
REMARK    5  A    between atoms: C2_17  and  N2_18 
REMARK       I    between atoms: N2_18  and  C7_27 
REMARK    6  A    between atoms: C4_21  and  O4_22 
REMARK    7  A    between atoms: O4_22  and  C1_30 
REMARK    8  A    between atoms: C5_23  and  C6_25 
REMARK    9  A    between atoms: C2_31  and  N2_32 
REMARK       I    between atoms: N2_32  and  C7_41 
REMARK   10  A    between atoms: C5_37  and  C6_39 
ROOT
HETATM    1  C1  NAG B   2       7.149  26.607  25.513  1.00 24.54     0.262 C 
HETATM    2  C2  NAG B   2       6.735  25.566  24.312  1.00 38.18     0.195 C 
HETATM    3  C3  NAG B   2       8.044  24.997  23.679  1.00 40.28     0.209 C 
HETATM    4  O3  NAG B   2       7.694  24.203  22.534  1.00 44.52    -0.218 OA
HETATM    5  C4  NAG B   2       8.869  26.284  23.312  1.00 31.56     0.180 C 
HETATM    6  C5  NAG B   2       9.222  27.174  24.601  1.00 25.00     0.180 C 
HETATM    7  O5  NAG B   2       7.924  27.761  25.011  1.00 56.77    -0.327 OA
ENDROOT
BRANCH   1   8
HETATM    8  O4  NAG B   1       5.916  27.130  26.133  1.00 46.30    -0.327 OA
BRANCH   8   9
HETATM    9  C4  NAG B   1       5.553  27.003  27.657  1.00 41.63     0.180 C 
HETATM   10  C3  NAG B   1       3.996  27.193  27.727  1.00 14.31     0.209 C 
HETATM   11  C2  NAG B   1       3.513  26.710  29.079  1.00 29.05     0.198 C 
HETATM   12  O3  NAG B   1       3.738  28.588  27.511  1.00 28.14    -0.218 OA
HETATM   13  C1  NAG B   1       4.085  25.298  29.362  1.00 32.10     0.295 C 
HETATM   14  O1  NAG B   1       3.594  24.953  30.653  1.00 46.64    -0.188 OA
HETATM   15  O5  NAG B   1       5.542  25.481  29.552  1.00 32.95    -0.325 OA
HETATM   16  C5  NAG B   1       6.121  25.687  28.210  1.00 38.82     0.181 C 
BRANCH  11  17
HETATM   17  N2  NAG B   1       2.038  26.658  29.141  1.00 30.31    -0.232 NA
HETATM   18  C7  NAG B   1       1.286  27.510  29.880  1.00 19.61     0.252 C 
HETATM   19  O7  NAG B   1       1.773  28.310  30.538  1.00 24.37    -0.271 OA
HETATM   20  C8  NAG B   1      -0.178  27.295  29.733  1.00 14.43     0.100 C 
ENDBRANCH  11  17
BRANCH  16  21
HETATM   21  C6  NAG B   1       7.621  25.711  28.380  1.00 50.43     0.214 C 
HETATM   22  O6  NAG B   1       8.273  24.389  28.087  1.00 38.95    -0.218 OA
ENDBRANCH  16  21
ENDBRANCH   8   9
ENDBRANCH   1   8
BRANCH   2  23
HETATM   23  N2  NAG B   2       5.924  24.447  24.801  1.00 47.13    -0.232 NA
HETATM   24  C7  NAG B   2       4.939  23.850  24.085  1.00 36.27     0.252 C 
HETATM   25  O7  NAG B   2       4.615  24.242  23.054  1.00 77.29    -0.271 OA
HETATM   26  C8  NAG B   2       4.329  22.655  24.742  1.00 25.48     0.100 C 
ENDBRANCH   2  23
BRANCH   6  27
HETATM   27  C6  NAG B   2      10.163  28.283  24.220  1.00 41.21     0.214 C 
HETATM   28  O6  NAG B   2       9.416  29.173  23.255  1.00 29.51    -0.218 OA
ENDBRANCH   6  27
BRANCH   5  29
HETATM   29  O4  NAG B   2      10.146  26.008  22.665  1.00 37.56    -0.327 OA
BRANCH  29  30
HETATM   30  C1  NAG B   3      10.665  25.864  21.315  1.00 31.25     0.262 C 
HETATM   31  C2  NAG B   3      12.174  25.996  21.128  1.00 50.86     0.195 C 
HETATM   32  C3  NAG B   3      12.501  26.032  19.669  1.00 27.28     0.212 C 
HETATM   33  O3  NAG B   3      13.912  25.778  19.518  1.00 49.98    -0.218 OA
HETATM   34  C4  NAG B   3      11.730  24.934  18.877  1.00 62.31     0.214 C 
HETATM   35  O4  NAG B   3      11.760  25.265  17.448  1.00 75.30    -0.218 OA
HETATM   36  C5  NAG B   3      10.243  24.784  19.260  1.00 37.66     0.184 C 
HETATM   37  O5  NAG B   3      10.111  24.694  20.681  1.00 55.96    -0.327 OA
BRANCH  31  38
HETATM   38  N2  NAG B   3      12.528  27.323  21.813  1.00 55.71    -0.232 NA
HETATM   39  C7  NAG B   3      13.484  27.430  22.755  1.00 64.76     0.252 C 
HETATM   40  O7  NAG B   3      13.887  26.510  23.318  1.00 66.12    -0.271 OA
HETATM   41  C8  NAG B   3      13.976  28.819  22.980  1.00 56.03     0.100 C 
ENDBRANCH  31  38
BRANCH  36  42
HETATM   42  C6  NAG B   3       9.655  23.493  18.708  1.00 49.19     0.214 C 
HETATM   43  O6  NAG B   3       8.426  23.102  19.395  1.00 68.92    -0.218 OA
ENDBRANCH  36  42
ENDBRANCH  29  30
ENDBRANCH   5  29
TORSDOF 10
ENDMDL
MODEL 8
REMARK VINA RESULT:    -6.215      3.091     10.653
REMARK INTER + INTRA:         -12.266
REMARK INTER:                  -9.633
REMARK INTRA:                  -2.633
REMARK UNBOUND:                -2.418
REMARK  10 active torsions:
REMARK  status: ('A' for Active; 'I' for Inactive)
REMARK    1  A    between atoms: C2_3  and  N2_4 
REMARK       I    between atoms: N2_4  and  C7_13 
REMARK    2  A    between atoms: C4_7  and  O4_8 
REMARK    3  A    between atoms: O4_8  and  C1_16 
REMARK    4  A    between atoms: C5_9  and  C6_11 
REMARK    5  A    between atoms: C2_17  and  N2_18 
REMARK       I    between atoms: N2_18  and  C7_27 
REMARK    6  A    between atoms: C4_21  and  O4_22 
REMARK    7  A    between atoms: O4_22  and  C1_30 
REMARK    8  A    between atoms: C5_23  and  C6_25 
REMARK    9  A    between atoms: C2_31  and  N2_32 
REMARK       I    between atoms: N2_32  and  C7_41 
REMARK   10  A    between atoms: C5_37  and  C6_39 
ROOT
HETATM    1  C1  NAG B   2       3.663  27.174  31.370  1.00 24.54     0.262 C 
HETATM    2  C2  NAG B   2       2.930  26.812  29.945  1.00 38.18     0.195 C 
HETATM    3  C3  NAG B   2       3.769  25.710  29.225  1.00 40.28     0.209 C 
HETATM    4  O3  NAG B   2       3.219  25.496  27.915  1.00 44.52    -0.218 OA
HETATM    5  C4  NAG B   2       5.222  26.310  29.195  1.00 31.56     0.180 C 
HETATM    6  C5  NAG B   2       5.806  26.572  30.668  1.00 25.00     0.180 C 
HETATM    7  O5  NAG B   2       5.022  27.722  31.177  1.00 56.77    -0.327 OA
ENDROOT
BRANCH   1   8
HETATM    8  O4  NAG B   1       2.862  28.198  32.069  1.00 46.30    -0.327 OA
BRANCH   8   9
HETATM    9  C4  NAG B   1       2.517  28.176  33.603  1.00 41.63     0.180 C 
HETATM   10  C3  NAG B   1       1.971  26.732  33.882  1.00 14.31     0.209 C 
HETATM   11  C2  NAG B   1       1.977  26.496  35.378  1.00 29.05     0.198 C 
HETATM   12  O3  NAG B   1       0.654  26.669  33.316  1.00 28.14    -0.218 OA
HETATM   13  C1  NAG B   1       3.363  26.873  35.959  1.00 32.10     0.295 C 
HETATM   14  O1  NAG B   1       3.253  26.639  37.359  1.00 46.64    -0.188 OA
HETATM   15  O5  NAG B   1       3.471  28.344  35.832  1.00 32.95    -0.325 OA
HETATM   16  C5  NAG B   1       3.744  28.627  34.409  1.00 38.82     0.181 C 
BRANCH  11  17
HETATM   17  N2  NAG B   1       1.679  25.088  35.708  1.00 30.31    -0.232 NA
HETATM   18  C7  NAG B   1       0.532  24.681  36.306  1.00 19.61     0.252 C 
HETATM   19  O7  NAG B   1      -0.266  25.436  36.628  1.00 24.37    -0.271 OA
HETATM   20  C8  NAG B   1       0.439  23.208  36.480  1.00 14.43     0.100 C 
ENDBRANCH  11  17
BRANCH  16  21
HETATM   21  C6  NAG B   1       4.016  30.108  34.303  1.00 50.43     0.214 C 
HETATM   22  O6  NAG B   1       5.068  30.447  33.284  1.00 38.95    -0.218 OA
ENDBRANCH  16  21
ENDBRANCH   8   9
ENDBRANCH   1   8
BRANCH   2  23
HETATM   23  N2  NAG B   2       1.563  26.315  30.133  1.00 47.13    -0.232 NA
HETATM   24  C7  NAG B   2       0.450  26.980  29.737  1.00 36.27     0.252 C 
HETATM   25  O7  NAG B   2       0.502  28.037  29.287  1.00 77.29    -0.271 OA
HETATM   26  C8  NAG B   2      -0.825  26.226  29.927  1.00 25.48     0.100 C 
ENDBRANCH   2  23
BRANCH   6  27
HETATM   27  C6  NAG B   2       7.256  26.964  30.585  1.00 41.21     0.214 C 
HETATM   28  O6  NAG B   2       7.305  28.286  29.855  1.00 29.51    -0.218 OA
ENDBRANCH   6  27
BRANCH   5  29
HETATM   29  O4  NAG B   2       6.203  25.460  28.531  1.00 37.56    -0.327 OA
BRANCH  29  30
HETATM   30  C1  NAG B   3       6.638  25.170  27.174  1.00 31.25     0.262 C 
HETATM   31  C2  NAG B   3       8.110  24.819  26.973  1.00 50.86     0.195 C 
HETATM   32  C3  NAG B   3       8.420  24.760  25.510  1.00 27.28     0.212 C 
HETATM   33  O3  NAG B   3       9.677  24.075  25.344  1.00 49.98    -0.218 OA
HETATM   34  C4  NAG B   3       7.334  23.967  24.722  1.00 62.31     0.214 C 
HETATM   35  O4  NAG B   3       7.455  24.283  23.294  1.00 75.30    -0.218 OA
HETATM   36  C5  NAG B   3       5.880  24.292  25.119  1.00 37.66     0.184 C 
HETATM   37  O5  NAG B   3       5.738  24.238  26.542  1.00 55.96    -0.327 OA
BRANCH  31  38
HETATM   38  N2  NAG B   3       8.871  25.962  27.659  1.00 55.71    -0.232 NA
HETATM   39  C7  NAG B   3       9.940  25.759  28.452  1.00 64.76     0.252 C 
HETATM   40  O7  NAG B   3      10.171  24.726  28.905  1.00 66.12    -0.271 OA
HETATM   41  C8  NAG B   3      10.787  26.967  28.667  1.00 56.03     0.100 C 
ENDBRANCH  31  38
BRANCH  36  42
HETATM   42  C6  NAG B   3       4.909  23.256  24.569  1.00 49.19     0.214 C 
HETATM   43  O6  NAG B   3       3.994  22.752  25.589  1.00 68.92    -0.218 OA
ENDBRANCH  36  42
ENDBRANCH  29  30
ENDBRANCH   5  29
TORSDOF 10
ENDMDL
MODEL 9
REMARK VINA RESULT:    -6.115      2.172      9.853
REMARK INTER + INTRA:         -12.109
REMARK INTER:                 -10.369
REMARK INTRA:                  -1.739
REMARK UNBOUND:                -2.418
REMARK  10 active torsions:
REMARK  status: ('A' for Active; 'I' for Inactive)
REMARK    1  A    between atoms: C2_3  and  N2_4 
REMARK       I    between atoms: N2_4  and  C7_13 
REMARK    2  A    between atoms: C4_7  and  O4_8 
REMARK    3  A    between atoms: O4_8  and  C1_16 
REMARK    4  A    between atoms: C5_9  and  C6_11 
REMARK    5  A    between atoms: C2_17  and  N2_18 
REMARK       I    between atoms: N2_18  and  C7_27 
REMARK    6  A    between atoms: C4_21  and  O4_22 
REMARK    7  A    between atoms: O4_22  and  C1_30 
REMARK    8  A    between atoms: C5_23  and  C6_25 
REMARK    9  A    between atoms: C2_31  and  N2_32 
REMARK       I    between atoms: N2_32  and  C7_41 
REMARK   10  A    between atoms: C5_37  and  C6_39 
ROOT
HETATM    1  C1  NAG B   2       6.930  25.496  26.763  1.00 24.54     0.262 C 
HETATM    2  C2  NAG B   2       8.422  24.900  27.109  1.00 38.18     0.195 C 
HETATM    3  C3  NAG B   2       9.391  25.295  25.950  1.00 40.28     0.209 C 
HETATM    4  O3  NAG B   2      10.658  24.653  26.172  1.00 44.52    -0.218 OA
HETATM    5  C4  NAG B   2       8.655  24.783  24.659  1.00 31.56     0.180 C 
HETATM    6  C5  NAG B   2       7.228  25.489  24.448  1.00 25.00     0.180 C 
HETATM    7  O5  NAG B   2       6.374  24.923  25.520  1.00 56.77    -0.327 OA
ENDROOT
BRANCH   1   8
HETATM    8  O4  NAG B   1       6.013  25.149  27.866  1.00 46.30    -0.327 OA
BRANCH   8   9
HETATM    9  C4  NAG B   1       4.803  26.032  28.341  1.00 41.63     0.180 C 
HETATM   10  C3  NAG B   1       4.352  25.412  29.710  1.00 14.31     0.209 C 
HETATM   11  C2  NAG B   1       3.461  26.411  30.421  1.00 29.05     0.198 C 
HETATM   12  O3  NAG B   1       3.677  24.183  29.408  1.00 28.14    -0.218 OA
HETATM   13  C1  NAG B   1       4.150  27.799  30.443  1.00 32.10     0.295 C 
HETATM   14  O1  NAG B   1       3.227  28.658  31.104  1.00 46.64    -0.188 OA
HETATM   15  O5  NAG B   1       4.161  28.270  29.039  1.00 32.95    -0.325 OA
HETATM   16  C5  NAG B   1       5.221  27.510  28.346  1.00 38.82     0.181 C 
BRANCH  11  17
HETATM   17  N2  NAG B   1       3.171  25.990  31.806  1.00 30.31    -0.232 NA
HETATM   18  C7  NAG B   1       1.969  25.509  32.210  1.00 19.61     0.252 C 
HETATM   19  O7  NAG B   1       1.086  25.439  31.484  1.00 24.37    -0.271 OA
HETATM   20  C8  NAG B   1       1.940  25.098  33.638  1.00 14.43     0.100 C 
ENDBRANCH  11  17
BRANCH  16  21
HETATM   21  C6  NAG B   1       5.346  28.100  26.963  1.00 50.43     0.214 C 
HETATM   22  O6  NAG B   1       4.213  29.021  26.605  1.00 38.95    -0.218 OA
ENDBRANCH  16  21
ENDBRANCH   8   9
ENDBRANCH   1   8
BRANCH   2  23
HETATM   23  N2  NAG B   2       8.954  25.430  28.369  1.00 47.13    -0.232 NA
HETATM   24  C7  NAG B   2       9.456  24.661  29.367  1.00 36.27     0.252 C 
HETATM   25  O7  NAG B   2       9.424  23.513  29.322  1.00 77.29    -0.271 OA
HETATM   26  C8  NAG B   2      10.047  25.427  30.504  1.00 25.48     0.100 C 
ENDBRANCH   2  23
BRANCH   6  27
HETATM   27  C6  NAG B   2       6.656  25.105  23.111  1.00 41.21     0.214 C 
HETATM   28  O6  NAG B   2       6.191  23.673  23.234  1.00 29.51    -0.218 OA
ENDBRANCH   6  27
BRANCH   5  29
HETATM   29  O4  NAG B   2       9.393  25.014  23.423  1.00 37.56    -0.327 OA
BRANCH  29  30
HETATM   30  C1  NAG B   3      10.144  26.090  22.798  1.00 31.25     0.262 C 
HETATM   31  C2  NAG B   3       9.950  26.299  21.299  1.00 50.86     0.195 C 
HETATM   32  C3  NAG B   3      10.945  27.295  20.794  1.00 27.28     0.212 C 
HETATM   33  O3  NAG B   3      10.510  27.749  19.497  1.00 49.98    -0.218 OA
HETATM   34  C4  NAG B   3      11.042  28.538  21.729  1.00 62.31     0.214 C 
HETATM   35  O4  NAG B   3      12.282  29.264  21.433  1.00 75.30    -0.218 OA
HETATM   36  C5  NAG B   3      11.075  28.214  23.237  1.00 37.66     0.184 C 
HETATM   37  O5  NAG B   3      10.020  27.305  23.564  1.00 55.96    -0.327 OA
BRANCH  31  38
HETATM   38  N2  NAG B   3      10.190  24.911  20.687  1.00 55.71    -0.232 NA
HETATM   39  C7  NAG B   3       9.270  24.269  19.943  1.00 64.76     0.252 C 
HETATM   40  O7  NAG B   3       8.158  24.568  19.962  1.00 66.12    -0.271 OA
HETATM   41  C8  NAG B   3       9.818  23.171  19.097  1.00 56.03     0.100 C 
ENDBRANCH  31  38
BRANCH  36  42
HETATM   42  C6  NAG B   3      10.825  29.457  24.078  1.00 49.19     0.214 C 
HETATM   43  O6  NAG B   3       9.842  30.352  23.473  1.00 68.92    -0.218 OA
ENDBRANCH  36  42
ENDBRANCH  29  30
ENDBRANCH   5  29
TORSDOF 10
ENDMDL
