MODEL 1
REMARK VINA RESULT:    -7.016      0.000      0.000
REMARK INTER + INTRA:         -13.460
REMARK INTER:                 -11.118
REMARK INTRA:                  -2.342
REMARK UNBOUND:                -2.342
REMARK  10 active torsions:
REMARK  status: ('A' for Active; 'I' for Inactive)
REMARK    1  A    between atoms: C2_3  and  N2_4 
REMARK       I    between atoms: N2_4  and  C7_13 
REMARK    2  A    between atoms: C4_7  and  O4_8 
REMARK    3  A    between atoms: O4_8  and  C1_16 
REMARK    4  A    between atoms: C5_9  and  C6_11 
REMARK    5  A    between atoms: C2_17  and  N2_18 
REMARK       I    between atoms: N2_18  and  C7_27 
REMARK    6  A    between atoms: C4_21  and  O4_22 
REMARK    7  A    between atoms: O4_22  and  C1_30 
REMARK    8  A    between atoms: C5_23  and  C6_25 
REMARK    9  A    between atoms: C2_31  and  N2_32 
REMARK       I    between atoms: N2_32  and  C7_41 
REMARK   10  A    between atoms: C5_37  and  C6_39 
ROOT
HETATM    1  C1  NAG B   2       6.836  25.021  25.608  1.00 24.54     0.262 C 
HETATM    2  C2  NAG B   2       5.562  24.145  26.164  1.00 38.18     0.195 C 
HETATM    3  C3  NAG B   2       4.921  24.914  27.362  1.00 40.28     0.209 C 
HETATM    4  O3  NAG B   2       3.902  24.087  27.947  1.00 44.52    -0.218 OA
HETATM    5  C4  NAG B   2       6.134  25.178  28.326  1.00 31.56     0.180 C 
HETATM    6  C5  NAG B   2       7.275  26.077  27.642  1.00 25.00     0.180 C 
HETATM    7  O5  NAG B   2       7.890  25.186  26.630  1.00 56.77    -0.327 OA
ENDROOT
BRANCH   1   8
HETATM    8  O4  NAG B   1       7.433  24.313  24.458  1.00 46.30    -0.327 OA
BRANCH   8   9
HETATM    9  C4  NAG B   1       7.713  24.958  23.052  1.00 41.63     0.180 C 
HETATM   10  C3  NAG B   1       9.237  25.330  23.066  1.00 14.31     0.209 C 
HETATM   11  C2  NAG B   1       9.681  25.596  21.642  1.00 29.05     0.198 C 
HETATM   12  O3  NAG B   1       9.377  26.478  23.914  1.00 28.14    -0.218 OA
HETATM   13  C1  NAG B   1       9.226  24.430  20.729  1.00 32.10     0.295 C 
HETATM   14  O1  NAG B   1       9.667  24.789  19.424  1.00 46.64    -0.188 OA
HETATM   15  O5  NAG B   1       7.749  24.517  20.662  1.00 32.95    -0.325 OA
HETATM   16  C5  NAG B   1       7.236  24.003  21.947  1.00 38.82     0.181 C 
BRANCH  11  17
HETATM   17  N2  NAG B   1      11.147  25.743  21.548  1.00 30.31    -0.232 NA
HETATM   18  C7  NAG B   1      11.771  26.923  21.308  1.00 19.61     0.252 C 
HETATM   19  O7  NAG B   1      11.172  27.882  21.124  1.00 24.37    -0.271 OA
HETATM   20  C8  NAG B   1      13.254  26.827  21.318  1.00 14.43     0.100 C 
ENDBRANCH  11  17
BRANCH  16  21
HETATM   21  C6  NAG B   1       5.734  23.937  21.823  1.00 50.43     0.214 C 
HETATM   22  O6  NAG B   1       5.056  25.245  22.123  1.00 38.95    -0.218 OA
ENDBRANCH  16  21
ENDBRANCH   8   9
ENDBRANCH   1   8
BRANCH   2  23
HETATM   23  N2  NAG B   2       4.538  23.939  25.135  1.00 47.13    -0.232 NA
HETATM   24  C7  NAG B   2       3.815  22.800  24.998  1.00 36.27     0.252 C 
HETATM   25  O7  NAG B   2       4.017  21.871  25.644  1.00 77.29    -0.271 OA
HETATM   26  C8  NAG B   2       2.748  22.862  23.954  1.00 25.48     0.100 C 
ENDBRANCH   2  23
BRANCH   6  27
HETATM   27  C6  NAG B   2       8.315  26.452  28.662  1.00 41.21     0.214 C 
HETATM   28  O6  NAG B   2       8.994  25.169  29.082  1.00 29.51    -0.218 OA
ENDBRANCH   6  27
BRANCH   5  29
HETATM   29  O4  NAG B   2       5.775  25.870  29.558  1.00 37.56    -0.327 OA
BRANCH  29  30
HETATM   30  C1  NAG B   3       4.577  26.397  30.191  1.00 31.25     0.262 C 
HETATM   31  C2  NAG B   3       3.732  27.376  29.382  1.00 50.86     0.195 C 
HETATM   32  C3  NAG B   3       2.671  27.969  30.254  1.00 27.28     0.212 C 
HETATM   33  O3  NAG B   3       1.679  28.579  29.405  1.00 49.98    -0.218 OA
HETATM   34  C4  NAG B   3       1.960  26.883  31.117  1.00 62.31     0.214 C 
HETATM   35  O4  NAG B   3       1.247  27.540  32.219  1.00 75.30    -0.218 OA
HETATM   36  C5  NAG B   3       2.905  25.850  31.764  1.00 37.66     0.184 C 
HETATM   37  O5  NAG B   3       3.808  25.331  30.782  1.00 55.96    -0.327 OA
BRANCH  31  38
HETATM   38  N2  NAG B   3       4.730  28.444  28.912  1.00 55.71    -0.232 NA
HETATM   39  C7  NAG B   3       4.774  28.900  27.647  1.00 64.76     0.252 C 
HETATM   40  O7  NAG B   3       4.286  28.325  26.777  1.00 66.12    -0.271 OA
HETATM   41  C8  NAG B   3       5.482  30.202  27.485  1.00 56.03     0.100 C 
ENDBRANCH  31  38
BRANCH  36  42
HETATM   42  C6  NAG B   3       2.135  24.648  32.293  1.00 49.19     0.214 C 
HETATM   43  O6  NAG B   3       1.850  24.753  33.722  1.00 68.92    -0.218 OA
ENDBRANCH  36  42
ENDBRANCH  29  30
ENDBRANCH   5  29
TORSDOF 10
ENDMDL
MODEL 2
REMARK VINA RESULT:    -6.564      2.379      9.254
REMARK INTER + INTRA:         -12.743
REMARK INTER:                 -10.176
REMARK INTRA:                  -2.567
REMARK UNBOUND:                -2.342
REMARK  10 active torsions:
REMARK  status: ('A' for Active; 'I' for Inactive)
REMARK    1  A    between atoms: C2_3  and  N2_4 
REMARK       I    between atoms: N2_4  and  C7_13 
REMARK    2  A    between atoms: C4_7  and  O4_8 
REMARK    3  A    between atoms: O4_8  and  C1_16 
REMARK    4  A    between atoms: C5_9  and  C6_11 
REMARK    5  A    between atoms: C2_17  and  N2_18 
REMARK       I    between atoms: N2_18  and  C7_27 
REMARK    6  A    between atoms: C4_21  and  O4_22 
REMARK    7  A    between atoms: O4_22  and  C1_30 
REMARK    8  A    between atoms: C5_23  and  C6_25 
REMARK    9  A    between atoms: C2_31  and  N2_32 
REMARK       I    between atoms: N2_32  and  C7_41 
REMARK   10  A    between atoms: C5_37  and  C6_39 
ROOT
HETATM    1  C1  NAG B   2       7.081  24.978  26.767  1.00 24.54     0.262 C 
HETATM    2  C2  NAG B   2       8.662  24.683  27.101  1.00 38.18     0.195 C 
HETATM    3  C3  NAG B   2       9.526  25.239  25.925  1.00 40.28     0.209 C 
HETATM    4  O3  NAG B   2      10.894  24.855  26.138  1.00 44.52    -0.218 OA
HETATM    5  C4  NAG B   2       8.888  24.577  24.650  1.00 31.56     0.180 C 
HETATM    6  C5  NAG B   2       7.350  24.994  24.448  1.00 25.00     0.180 C 
HETATM    7  O5  NAG B   2       6.632  24.291  25.538  1.00 56.77    -0.327 OA
ENDROOT
BRANCH   1   8
HETATM    8  O4  NAG B   1       6.258  24.477  27.886  1.00 46.30    -0.327 OA
BRANCH   8   9
HETATM    9  C4  NAG B   1       5.094  25.279  28.574  1.00 41.63     0.180 C 
HETATM   10  C3  NAG B   1       5.756  26.602  29.095  1.00 14.31     0.209 C 
HETATM   11  C2  NAG B   1       4.658  27.593  29.422  1.00 29.05     0.198 C 
HETATM   12  O3  NAG B   1       6.544  26.250  30.240  1.00 28.14    -0.218 OA
HETATM   13  C1  NAG B   1       3.675  27.694  28.228  1.00 32.10     0.295 C 
HETATM   14  O1  NAG B   1       2.681  28.623  28.645  1.00 46.64    -0.188 OA
HETATM   15  O5  NAG B   1       2.972  26.392  28.169  1.00 32.95    -0.325 OA
HETATM   16  C5  NAG B   1       3.923  25.423  27.590  1.00 38.82     0.181 C 
BRANCH  11  17
HETATM   17  N2  NAG B   1       5.205  28.933  29.715  1.00 30.31    -0.232 NA
HETATM   18  C7  NAG B   1       5.218  29.486  30.953  1.00 19.61     0.252 C 
HETATM   19  O7  NAG B   1       4.759  28.941  31.849  1.00 24.37    -0.271 OA
HETATM   20  C8  NAG B   1       5.875  30.819  31.005  1.00 14.43     0.100 C 
ENDBRANCH  11  17
BRANCH  16  21
HETATM   21  C6  NAG B   1       3.160  24.138  27.377  1.00 50.43     0.214 C 
HETATM   22  O6  NAG B   1       3.474  23.471  26.067  1.00 38.95    -0.218 OA
ENDBRANCH  16  21
ENDBRANCH   8   9
ENDBRANCH   1   8
BRANCH   2  23
HETATM   23  N2  NAG B   2       9.095  25.323  28.347  1.00 47.13    -0.232 NA
HETATM   24  C7  NAG B   2       9.569  24.650  29.424  1.00 36.27     0.252 C 
HETATM   25  O7  NAG B   2       9.588  23.501  29.461  1.00 77.29    -0.271 OA
HETATM   26  C8  NAG B   2      10.059  25.519  30.535  1.00 25.48     0.100 C 
ENDBRANCH   2  23
BRANCH   6  27
HETATM   27  C6  NAG B   2       6.849  24.488  23.124  1.00 41.21     0.214 C 
HETATM   28  O6  NAG B   2       5.422  24.043  23.342  1.00 29.51    -0.218 OA
ENDBRANCH   6  27
BRANCH   5  29
HETATM   29  O4  NAG B   2       9.556  24.926  23.402  1.00 37.56    -0.327 OA
BRANCH  29  30
HETATM   30  C1  NAG B   3      10.167  26.097  22.795  1.00 31.25     0.262 C 
HETATM   31  C2  NAG B   3       9.929  26.315  21.303  1.00 50.86     0.195 C 
HETATM   32  C3  NAG B   3      10.794  27.433  20.811  1.00 27.28     0.212 C 
HETATM   33  O3  NAG B   3      10.291  27.862  19.531  1.00 49.98    -0.218 OA
HETATM   34  C4  NAG B   3      10.757  28.657  21.775  1.00 62.31     0.214 C 
HETATM   35  O4  NAG B   3      11.900  29.530  21.482  1.00 75.30    -0.218 OA
HETATM   36  C5  NAG B   3      10.850  28.304  23.274  1.00 37.66     0.184 C 
HETATM   37  O5  NAG B   3       9.913  27.271  23.591  1.00 55.96    -0.327 OA
BRANCH  31  38
HETATM   38  N2  NAG B   3      10.321  24.979  20.655  1.00 55.71    -0.232 NA
HETATM   39  C7  NAG B   3       9.520  24.316  19.801  1.00 64.76     0.252 C 
HETATM   40  O7  NAG B   3       8.393  24.540  19.729  1.00 66.12    -0.271 OA
HETATM   41  C8  NAG B   3      10.219  23.302  18.962  1.00 56.03     0.100 C 
ENDBRANCH  31  38
BRANCH  36  42
HETATM   42  C6  NAG B   3      10.468  29.491  24.148  1.00 49.19     0.214 C 
HETATM   43  O6  NAG B   3       9.164  30.047  23.794  1.00 68.92    -0.218 OA
ENDBRANCH  36  42
ENDBRANCH  29  30
ENDBRANCH   5  29
TORSDOF 10
ENDMDL
MODEL 3
REMARK VINA RESULT:    -6.537      2.626      9.096
REMARK INTER + INTRA:         -12.701
REMARK INTER:                 -10.595
REMARK INTRA:                  -2.106
REMARK UNBOUND:                -2.342
REMARK  10 active torsions:
REMARK  status: ('A' for Active; 'I' for Inactive)
REMARK    1  A    between atoms: C2_3  and  N2_4 
REMARK       I    between atoms: N2_4  and  C7_13 
REMARK    2  A    between atoms: C4_7  and  O4_8 
REMARK    3  A    between atoms: O4_8  and  C1_16 
REMARK    4  A    between atoms: C5_9  and  C6_11 
REMARK    5  A    between atoms: C2_17  and  N2_18 
REMARK       I    between atoms: N2_18  and  C7_27 
REMARK    6  A    between atoms: C4_21  and  O4_22 
REMARK    7  A    between atoms: O4_22  and  C1_30 
REMARK    8  A    between atoms: C5_23  and  C6_25 
REMARK    9  A    between atoms: C2_31  and  N2_32 
REMARK       I    between atoms: N2_32  and  C7_41 
REMARK   10  A    between atoms: C5_37  and  C6_39 
ROOT
HETATM    1  C1  NAG B   2       4.831  26.310  30.081  1.00 24.54     0.262 C 
HETATM    2  C2  NAG B   2       3.605  25.975  29.041  1.00 38.18     0.195 C 
HETATM    3  C3  NAG B   2       4.034  24.770  28.145  1.00 40.28     0.209 C 
HETATM    4  O3  NAG B   2       3.031  24.566  27.137  1.00 44.52    -0.218 OA
HETATM    5  C4  NAG B   2       5.421  25.220  27.557  1.00 31.56     0.180 C 
HETATM    6  C5  NAG B   2       6.518  25.473  28.703  1.00 25.00     0.180 C 
HETATM    7  O5  NAG B   2       6.066  26.713  29.378  1.00 56.77    -0.327 OA
ENDROOT
BRANCH   1   8
HETATM    8  O4  NAG B   1       4.423  27.432  30.950  1.00 46.30    -0.327 OA
BRANCH   8   9
HETATM    9  C4  NAG B   1       4.990  28.895  30.854  1.00 41.63     0.180 C 
HETATM   10  C3  NAG B   1       3.951  29.684  29.981  1.00 14.31     0.209 C 
HETATM   11  C2  NAG B   1       4.205  31.167  30.154  1.00 29.05     0.198 C 
HETATM   12  O3  NAG B   1       4.128  29.245  28.627  1.00 28.14    -0.218 OA
HETATM   13  C1  NAG B   1       4.293  31.508  31.663  1.00 32.10     0.295 C 
HETATM   14  O1  NAG B   1       4.555  32.906  31.712  1.00 46.64    -0.188 OA
HETATM   15  O5  NAG B   1       5.540  30.876  32.151  1.00 32.95    -0.325 OA
HETATM   16  C5  NAG B   1       5.264  29.430  32.268  1.00 38.82     0.181 C 
BRANCH  11  17
HETATM   17  N2  NAG B   1       3.137  31.977  29.535  1.00 30.31    -0.232 NA
HETATM   18  C7  NAG B   1       3.263  32.600  28.337  1.00 19.61     0.252 C 
HETATM   19  O7  NAG B   1       4.245  32.557  27.749  1.00 24.37    -0.271 OA
HETATM   20  C8  NAG B   1       2.031  33.305  27.897  1.00 14.43     0.100 C 
ENDBRANCH  11  17
BRANCH  16  21
HETATM   21  C6  NAG B   1       6.475  28.806  32.917  1.00 50.43     0.214 C 
HETATM   22  O6  NAG B   1       6.456  28.893  34.417  1.00 38.95    -0.218 OA
ENDBRANCH  16  21
ENDBRANCH   8   9
ENDBRANCH   1   8
BRANCH   2  23
HETATM   23  N2  NAG B   2       2.364  25.623  29.739  1.00 47.13    -0.232 NA
HETATM   24  C7  NAG B   2       1.280  26.434  29.820  1.00 36.27     0.252 C 
HETATM   25  O7  NAG B   2       1.291  27.505  29.404  1.00 77.29    -0.271 OA
HETATM   26  C8  NAG B   2       0.090  25.818  30.480  1.00 25.48     0.100 C 
ENDBRANCH   2  23
BRANCH   6  27
HETATM   27  C6  NAG B   2       7.865  25.716  28.080  1.00 41.21     0.214 C 
HETATM   28  O6  NAG B   2       8.880  25.024  28.960  1.00 29.51    -0.218 OA
ENDBRANCH   6  27
BRANCH   5  29
HETATM   29  O4  NAG B   2       6.022  24.254  26.646  1.00 37.56    -0.327 OA
BRANCH  29  30
HETATM   30  C1  NAG B   3       6.411  24.186  25.247  1.00 31.25     0.262 C 
HETATM   31  C2  NAG B   3       5.290  24.104  24.213  1.00 50.86     0.195 C 
HETATM   32  C3  NAG B   3       5.868  23.831  22.861  1.00 27.28     0.212 C 
HETATM   33  O3  NAG B   3       4.863  24.129  21.873  1.00 49.98    -0.218 OA
HETATM   34  C4  NAG B   3       7.107  24.731  22.571  1.00 62.31     0.214 C 
HETATM   35  O4  NAG B   3       7.863  24.157  21.452  1.00 75.30    -0.218 OA
HETATM   36  C5  NAG B   3       8.098  24.867  23.744  1.00 37.66     0.184 C 
HETATM   37  O5  NAG B   3       7.393  25.197  24.944  1.00 55.96    -0.327 OA
BRANCH  31  38
HETATM   38  N2  NAG B   3       4.415  22.937  24.692  1.00 55.71    -0.232 NA
HETATM   39  C7  NAG B   3       3.107  22.830  24.392  1.00 64.76     0.252 C 
HETATM   40  O7  NAG B   3       2.494  23.732  24.020  1.00 66.12    -0.271 OA
HETATM   41  C8  NAG B   3       2.545  21.461  24.563  1.00 56.03     0.100 C 
ENDBRANCH  31  38
BRANCH  36  42
HETATM   42  C6  NAG B   3       9.078  26.009  23.515  1.00 49.19     0.214 C 
HETATM   43  O6  NAG B   3       8.459  27.319  23.692  1.00 68.92    -0.218 OA
ENDBRANCH  36  42
ENDBRANCH  29  30
ENDBRANCH   5  29
TORSDOF 10
ENDMDL
MODEL 4
REMARK VINA RESULT:    -6.477      2.313     10.089
REMARK INTER + INTRA:         -12.606
REMARK INTER:                 -10.164
REMARK INTRA:                  -2.441
REMARK UNBOUND:                -2.342
REMARK  10 active torsions:
REMARK  status: ('A' for Active; 'I' for Inactive)
REMARK    1  A    between atoms: C2_3  and  N2_4 
REMARK       I    between atoms: N2_4  and  C7_13 
REMARK    2  A    between atoms: C4_7  and  O4_8 
REMARK    3  A    between atoms: O4_8  and  C1_16 
REMARK    4  A    between atoms: C5_9  and  C6_11 
REMARK    5  A    between atoms: C2_17  and  N2_18 
REMARK       I    between atoms: N2_18  and  C7_27 
REMARK    6  A    between atoms: C4_21  and  O4_22 
REMARK    7  A    between atoms: O4_22  and  C1_30 
REMARK    8  A    between atoms: C5_23  and  C6_25 
REMARK    9  A    between atoms: C2_31  and  N2_32 
REMARK       I    between atoms: N2_32  and  C7_41 
REMARK   10  A    between atoms: C5_37  and  C6_39 
ROOT
HETATM    1  C1  NAG B   2       7.701  24.975  25.608  1.00 24.54     0.262 C 
HETATM    2  C2  NAG B   2       9.334  25.110  25.735  1.00 38.18     0.195 C 
HETATM    3  C3  NAG B   2       9.844  26.027  24.578  1.00 40.28     0.209 C 
HETATM    4  O3  NAG B   2      11.281  26.029  24.594  1.00 44.52    -0.218 OA
HETATM    5  C4  NAG B   2       9.240  25.366  23.286  1.00 31.56     0.180 C 
HETATM    6  C5  NAG B   2       7.634  25.344  23.304  1.00 25.00     0.180 C 
HETATM    7  O5  NAG B   2       7.290  24.340  24.339  1.00 56.77    -0.327 OA
ENDROOT
BRANCH   1   8
HETATM    8  O4  NAG B   1       7.208  24.131  26.713  1.00 46.30    -0.327 OA
BRANCH   8   9
HETATM    9  C4  NAG B   1       5.961  24.463  27.611  1.00 41.63     0.180 C 
HETATM   10  C3  NAG B   1       6.351  25.768  28.390  1.00 14.31     0.209 C 
HETATM   11  C2  NAG B   1       5.092  26.372  28.977  1.00 29.05     0.198 C 
HETATM   12  O3  NAG B   1       7.302  25.384  29.394  1.00 28.14    -0.218 OA
HETATM   13  C1  NAG B   1       4.005  26.481  27.878  1.00 32.10     0.295 C 
HETATM   14  O1  NAG B   1       2.869  27.032  28.534  1.00 46.64    -0.188 OA
HETATM   15  O5  NAG B   1       3.613  25.090  27.555  1.00 32.95    -0.325 OA
HETATM   16  C5  NAG B   1       4.701  24.523  26.734  1.00 38.82     0.181 C 
BRANCH  11  17
HETATM   17  N2  NAG B   1       5.345  27.712  29.543  1.00 30.31    -0.232 NA
HETATM   18  C7  NAG B   1       5.399  27.970  30.874  1.00 19.61     0.252 C 
HETATM   19  O7  NAG B   1       5.209  27.144  31.643  1.00 24.37    -0.271 OA
HETATM   20  C8  NAG B   1       5.726  29.383  31.196  1.00 14.43     0.100 C 
ENDBRANCH  11  17
BRANCH  16  21
HETATM   21  C6  NAG B   1       4.235  23.166  26.267  1.00 50.43     0.214 C 
HETATM   22  O6  NAG B   1       4.326  22.986  24.777  1.00 38.95    -0.218 OA
ENDBRANCH  16  21
ENDBRANCH   8   9
ENDBRANCH   1   8
BRANCH   2  23
HETATM   23  N2  NAG B   2       9.745  25.695  27.015  1.00 47.13    -0.232 NA
HETATM   24  C7  NAG B   2      10.405  25.015  27.986  1.00 36.27     0.252 C 
HETATM   25  O7  NAG B   2      10.619  23.889  27.899  1.00 77.29    -0.271 OA
HETATM   26  C8  NAG B   2      10.824  25.848  29.153  1.00 25.48     0.100 C 
ENDBRANCH   2  23
BRANCH   6  27
HETATM   27  C6  NAG B   2       7.110  24.877  21.974  1.00 41.21     0.214 C 
HETATM   28  O6  NAG B   2       5.608  24.781  22.108  1.00 29.51    -0.218 OA
ENDBRANCH   6  27
BRANCH   5  29
HETATM   29  O4  NAG B   2       9.609  26.038  22.046  1.00 37.56    -0.327 OA
BRANCH  29  30
HETATM   30  C1  NAG B   3      10.368  25.743  20.842  1.00 31.25     0.262 C 
HETATM   31  C2  NAG B   3      11.890  25.816  20.940  1.00 50.86     0.195 C 
HETATM   32  C3  NAG B   3      12.491  25.692  19.576  1.00 27.28     0.212 C 
HETATM   33  O3  NAG B   3      13.892  25.389  19.727  1.00 49.98    -0.218 OA
HETATM   34  C4  NAG B   3      11.836  24.538  18.760  1.00 62.31     0.214 C 
HETATM   35  O4  NAG B   3      12.152  24.719  17.338  1.00 75.30    -0.218 OA
HETATM   36  C5  NAG B   3      10.298  24.466  18.859  1.00 37.66     0.184 C 
HETATM   37  O5  NAG B   3       9.894  24.527  20.230  1.00 55.96    -0.327 OA
BRANCH  31  38
HETATM   38  N2  NAG B   3      12.166  27.198  21.549  1.00 55.71    -0.232 NA
HETATM   39  C7  NAG B   3      13.263  27.472  22.279  1.00 64.76     0.252 C 
HETATM   40  O7  NAG B   3      13.907  26.637  22.743  1.00 66.12    -0.271 OA
HETATM   41  C8  NAG B   3      13.571  28.924  22.410  1.00 56.03     0.100 C 
ENDBRANCH  31  38
BRANCH  36  42
HETATM   42  C6  NAG B   3       9.769  23.139  18.332  1.00 49.19     0.214 C 
HETATM   43  O6  NAG B   3       8.892  23.309  17.176  1.00 68.92    -0.218 OA
ENDBRANCH  36  42
ENDBRANCH  29  30
ENDBRANCH   5  29
TORSDOF 10
ENDMDL
MODEL 5
REMARK VINA RESULT:    -6.446      2.333      9.988
REMARK INTER + INTRA:         -12.556
REMARK INTER:                 -10.224
REMARK INTRA:                  -2.332
REMARK UNBOUND:                -2.342
REMARK  10 active torsions:
REMARK  status: ('A' for Active; 'I' for Inactive)
REMARK    1  A    between atoms: C2_3  and  N2_4 
REMARK       I    between atoms: N2_4  and  C7_13 
REMARK    2  A    between atoms: C4_7  and  O4_8 
REMARK    3  A    between atoms: O4_8  and  C1_16 
REMARK    4  A    between atoms: C5_9  and  C6_11 
REMARK    5  A    between atoms: C2_17  and  N2_18 
REMARK       I    between atoms: N2_18  and  C7_27 
REMARK    6  A    between atoms: C4_21  and  O4_22 
REMARK    7  A    between atoms: O4_22  and  C1_30 
REMARK    8  A    between atoms: C5_23  and  C6_25 
REMARK    9  A    between atoms: C2_31  and  N2_32 
REMARK       I    between atoms: N2_32  and  C7_41 
REMARK   10  A    between atoms: C5_37  and  C6_39 
ROOT
HETATM    1  C1  NAG B   2       7.592  24.847  25.519  1.00 24.54     0.262 C 
HETATM    2  C2  NAG B   2       9.222  25.023  25.623  1.00 38.18     0.195 C 
HETATM    3  C3  NAG B   2       9.704  25.880  24.411  1.00 40.28     0.209 C 
HETATM    4  O3  NAG B   2      11.141  25.914  24.413  1.00 44.52    -0.218 OA
HETATM    5  C4  NAG B   2       9.103  25.132  23.165  1.00 31.56     0.180 C 
HETATM    6  C5  NAG B   2       7.499  25.078  23.198  1.00 25.00     0.180 C 
HETATM    7  O5  NAG B   2       7.184  24.130  24.293  1.00 56.77    -0.327 OA
ENDROOT
BRANCH   1   8
HETATM    8  O4  NAG B   1       7.125  24.058  26.677  1.00 46.30    -0.327 OA
BRANCH   8   9
HETATM    9  C4  NAG B   1       5.896  24.433  27.582  1.00 41.63     0.180 C 
HETATM   10  C3  NAG B   1       6.333  25.727  28.354  1.00 14.31     0.209 C 
HETATM   11  C2  NAG B   1       5.097  26.373  28.948  1.00 29.05     0.198 C 
HETATM   12  O3  NAG B   1       7.279  25.318  29.352  1.00 28.14    -0.218 OA
HETATM   13  C1  NAG B   1       4.006  26.511  27.857  1.00 32.10     0.295 C 
HETATM   14  O1  NAG B   1       2.893  27.100  28.520  1.00 46.64    -0.188 OA
HETATM   15  O5  NAG B   1       3.569  25.132  27.542  1.00 32.95    -0.325 OA
HETATM   16  C5  NAG B   1       4.632  24.529  26.714  1.00 38.82     0.181 C 
BRANCH  11  17
HETATM   17  N2  NAG B   1       5.397  27.706  29.507  1.00 30.31    -0.232 NA
HETATM   18  C7  NAG B   1       5.473  27.965  30.836  1.00 19.61     0.252 C 
HETATM   19  O7  NAG B   1       5.266  27.147  31.611  1.00 24.37    -0.271 OA
HETATM   20  C8  NAG B   1       5.845  29.369  31.151  1.00 14.43     0.100 C 
ENDBRANCH  11  17
BRANCH  16  21
HETATM   21  C6  NAG B   1       4.120  23.185  26.256  1.00 50.43     0.214 C 
HETATM   22  O6  NAG B   1       4.130  23.024  24.762  1.00 38.95    -0.218 OA
ENDBRANCH  16  21
ENDBRANCH   8   9
ENDBRANCH   1   8
BRANCH   2  23
HETATM   23  N2  NAG B   2       9.631  25.690  26.864  1.00 47.13    -0.232 NA
HETATM   24  C7  NAG B   2      10.355  25.096  27.845  1.00 36.27     0.252 C 
HETATM   25  O7  NAG B   2      10.634  23.982  27.803  1.00 77.29    -0.271 OA
HETATM   26  C8  NAG B   2      10.753  26.006  28.961  1.00 25.48     0.100 C 
ENDBRANCH   2  23
BRANCH   6  27
HETATM   27  C6  NAG B   2       6.975  24.523  21.903  1.00 41.21     0.214 C 
HETATM   28  O6  NAG B   2       5.492  24.812  21.875  1.00 29.51    -0.218 OA
ENDBRANCH   6  27
BRANCH   5  29
HETATM   29  O4  NAG B   2       9.448  25.738  21.885  1.00 37.56    -0.327 OA
BRANCH  29  30
HETATM   30  C1  NAG B   3      10.648  26.130  21.164  1.00 31.25     0.262 C 
HETATM   31  C2  NAG B   3      10.547  26.237  19.644  1.00 50.86     0.195 C 
HETATM   32  C3  NAG B   3      11.909  26.441  19.060  1.00 27.28     0.212 C 
HETATM   33  O3  NAG B   3      11.752  26.908  17.705  1.00 49.98    -0.218 OA
HETATM   34  C4  NAG B   3      12.719  27.516  19.846  1.00 62.31     0.214 C 
HETATM   35  O4  NAG B   3      14.141  27.384  19.508  1.00 75.30    -0.218 OA
HETATM   36  C5  NAG B   3      12.623  27.404  21.382  1.00 37.66     0.184 C 
HETATM   37  O5  NAG B   3      11.253  27.285  21.778  1.00 55.96    -0.327 OA
BRANCH  31  38
HETATM   38  N2  NAG B   3       9.947  24.893  19.207  1.00 55.71    -0.232 NA
HETATM   39  C7  NAG B   3       9.008  24.787  18.249  1.00 64.76     0.252 C 
HETATM   40  O7  NAG B   3       8.383  25.693  17.908  1.00 66.12    -0.271 OA
HETATM   41  C8  NAG B   3       8.870  23.421  17.669  1.00 56.03     0.100 C 
ENDBRANCH  31  38
BRANCH  36  42
HETATM   42  C6  NAG B   3      13.142  28.662  22.064  1.00 49.19     0.214 C 
HETATM   43  O6  NAG B   3      12.481  28.917  23.341  1.00 68.92    -0.218 OA
ENDBRANCH  36  42
ENDBRANCH  29  30
ENDBRANCH   5  29
TORSDOF 10
ENDMDL
MODEL 6
REMARK VINA RESULT:    -6.361      2.346      9.943
REMARK INTER + INTRA:         -12.422
REMARK INTER:                 -10.209
REMARK INTRA:                  -2.213
REMARK UNBOUND:                -2.342
REMARK  10 active torsions:
REMARK  status: ('A' for Active; 'I' for Inactive)
REMARK    1  A    between atoms: C2_3  and  N2_4 
REMARK       I    between atoms: N2_4  and  C7_13 
REMARK    2  A    between atoms: C4_7  and  O4_8 
REMARK    3  A    between atoms: O4_8  and  C1_16 
REMARK    4  A    between atoms: C5_9  and  C6_11 
REMARK    5  A    between atoms: C2_17  and  N2_18 
REMARK       I    between atoms: N2_18  and  C7_27 
REMARK    6  A    between atoms: C4_21  and  O4_22 
REMARK    7  A    between atoms: O4_22  and  C1_30 
REMARK    8  A    between atoms: C5_23  and  C6_25 
REMARK    9  A    between atoms: C2_31  and  N2_32 
REMARK       I    between atoms: N2_32  and  C7_41 
REMARK   10  A    between atoms: C5_37  and  C6_39 
ROOT
HETATM    1  C1  NAG B   2       7.175  25.528  27.086  1.00 24.54     0.262 C 
HETATM    2  C2  NAG B   2       8.672  24.876  27.268  1.00 38.18     0.195 C 
HETATM    3  C3  NAG B   2       9.523  25.236  26.009  1.00 40.28     0.209 C 
HETATM    4  O3  NAG B   2      10.781  24.546  26.091  1.00 44.52    -0.218 OA
HETATM    5  C4  NAG B   2       8.630  24.755  24.807  1.00 31.56     0.180 C 
HETATM    6  C5  NAG B   2       7.216  25.515  24.752  1.00 25.00     0.180 C 
HETATM    7  O5  NAG B   2       6.464  24.980  25.912  1.00 56.77    -0.327 OA
ENDROOT
BRANCH   1   8
HETATM    8  O4  NAG B   1       6.372  25.214  28.284  1.00 46.30    -0.327 OA
BRANCH   8   9
HETATM    9  C4  NAG B   1       5.476  26.245  29.062  1.00 41.63     0.180 C 
HETATM   10  C3  NAG B   1       4.007  25.717  28.902  1.00 14.31     0.209 C 
HETATM   11  C2  NAG B   1       3.132  26.415  29.923  1.00 29.05     0.198 C 
HETATM   12  O3  NAG B   1       3.611  25.993  27.551  1.00 28.14    -0.218 OA
HETATM   13  C1  NAG B   1       3.789  26.322  31.323  1.00 32.10     0.295 C 
HETATM   14  O1  NAG B   1       2.906  27.022  32.193  1.00 46.64    -0.188 OA
HETATM   15  O5  NAG B   1       5.003  27.167  31.260  1.00 32.95    -0.325 OA
HETATM   16  C5  NAG B   1       6.009  26.407  30.494  1.00 38.82     0.181 C 
BRANCH  11  17
HETATM   17  N2  NAG B   1       1.782  25.819  29.979  1.00 30.31    -0.232 NA
HETATM   18  C7  NAG B   1       0.640  26.521  29.775  1.00 19.61     0.252 C 
HETATM   19  O7  NAG B   1       0.667  27.649  29.580  1.00 24.37    -0.271 OA
HETATM   20  C8  NAG B   1      -0.590  25.689  29.825  1.00 14.43     0.100 C 
ENDBRANCH  11  17
BRANCH  16  21
HETATM   21  C6  NAG B   1       7.297  27.191  30.566  1.00 50.43     0.214 C 
HETATM   22  O6  NAG B   1       7.881  27.248  31.950  1.00 38.95    -0.218 OA
ENDBRANCH  16  21
ENDBRANCH   8   9
ENDBRANCH   1   8
BRANCH   2  23
HETATM   23  N2  NAG B   2       9.358  25.382  28.460  1.00 47.13    -0.232 NA
HETATM   24  C7  NAG B   2       9.758  24.604  29.497  1.00 36.27     0.252 C 
HETATM   25  O7  NAG B   2       9.510  23.483  29.545  1.00 77.29    -0.271 OA
HETATM   26  C8  NAG B   2      10.542  25.322  30.547  1.00 25.48     0.100 C 
ENDBRANCH   2  23
BRANCH   6  27
HETATM   27  C6  NAG B   2       6.487  25.156  23.487  1.00 41.21     0.214 C 
HETATM   28  O6  NAG B   2       5.832  23.816  23.730  1.00 29.51    -0.218 OA
ENDBRANCH   6  27
BRANCH   5  29
HETATM   29  O4  NAG B   2       9.236  24.960  23.497  1.00 37.56    -0.327 OA
BRANCH  29  30
HETATM   30  C1  NAG B   3      10.051  25.961  22.829  1.00 31.25     0.262 C 
HETATM   31  C2  NAG B   3       9.790  26.197  21.344  1.00 50.86     0.195 C 
HETATM   32  C3  NAG B   3      10.847  27.094  20.781  1.00 27.28     0.212 C 
HETATM   33  O3  NAG B   3      10.382  27.597  19.513  1.00 49.98    -0.218 OA
HETATM   34  C4  NAG B   3      11.122  28.315  21.709  1.00 62.31     0.214 C 
HETATM   35  O4  NAG B   3      12.408  28.916  21.339  1.00 75.30    -0.218 OA
HETATM   36  C5  NAG B   3      11.213  27.979  23.212  1.00 37.66     0.184 C 
HETATM   37  O5  NAG B   3      10.095  27.177  23.602  1.00 55.96    -0.327 OA
BRANCH  31  38
HETATM   38  N2  NAG B   3       9.854  24.797  20.718  1.00 55.71    -0.232 NA
HETATM   39  C7  NAG B   3       8.788  24.193  20.161  1.00 64.76     0.252 C 
HETATM   40  O7  NAG B   3       7.712  24.544  20.375  1.00 66.12    -0.271 OA
HETATM   41  C8  NAG B   3       9.125  23.067  19.245  1.00 56.03     0.100 C 
ENDBRANCH  31  38
BRANCH  36  42
HETATM   42  C6  NAG B   3      11.139  29.235  24.068  1.00 49.19     0.214 C 
HETATM   43  O6  NAG B   3      10.016  29.207  25.002  1.00 68.92    -0.218 OA
ENDBRANCH  36  42
ENDBRANCH  29  30
ENDBRANCH   5  29
TORSDOF 10
ENDMDL
MODEL 7
REMARK VINA RESULT:    -6.168      2.611      9.411
REMARK INTER + INTRA:         -12.116
REMARK INTER:                  -9.552
REMARK INTRA:                  -2.564
REMARK UNBOUND:                -2.342
REMARK  10 active torsions:
REMARK  status: ('A' for Active; 'I' for Inactive)
REMARK    1  A    between atoms: C2_3  and  N2_4 
REMARK       I    between atoms: N2_4  and  C7_13 
REMARK    2  A    between atoms: C4_7  and  O4_8 
REMARK    3  A    between atoms: O4_8  and  C1_16 
REMARK    4  A    between atoms: C5_9  and  C6_11 
REMARK    5  A    between atoms: C2_17  and  N2_18 
REMARK       I    between atoms: N2_18  and  C7_27 
REMARK    6  A    between atoms: C4_21  and  O4_22 
REMARK    7  A    between atoms: O4_22  and  C1_30 
REMARK    8  A    between atoms: C5_23  and  C6_25 
REMARK    9  A    between atoms: C2_31  and  N2_32 
REMARK       I    between atoms: N2_32  and  C7_41 
REMARK   10  A    between atoms: C5_37  and  C6_39 
ROOT
HETATM    1  C1  NAG B   2       4.221  27.802  27.969  1.00 24.54     0.262 C 
HETATM    2  C2  NAG B   2       4.280  26.163  28.061  1.00 38.18     0.195 C 
HETATM    3  C3  NAG B   2       5.714  25.698  27.654  1.00 40.28     0.209 C 
HETATM    4  O3  NAG B   2       5.731  24.263  27.589  1.00 44.52    -0.218 OA
HETATM    5  C4  NAG B   2       5.946  26.385  26.259  1.00 31.56     0.180 C 
HETATM    6  C5  NAG B   2       5.892  27.987  26.349  1.00 25.00     0.180 C 
HETATM    7  O5  NAG B   2       4.463  28.295  26.597  1.00 56.77    -0.327 OA
ENDROOT
BRANCH   1   8
HETATM    8  O4  NAG B   1       2.875  28.252  28.376  1.00 46.30    -0.327 OA
BRANCH   8   9
HETATM    9  C4  NAG B   1       2.586  29.379  29.433  1.00 41.63     0.180 C 
HETATM   10  C3  NAG B   1       2.726  28.678  30.831  1.00 14.31     0.209 C 
HETATM   11  C2  NAG B   1       2.846  29.749  31.896  1.00 29.05     0.198 C 
HETATM   12  O3  NAG B   1       1.565  27.854  31.001  1.00 28.14    -0.218 OA
HETATM   13  C1  NAG B   1       3.933  30.773  31.484  1.00 32.10     0.295 C 
HETATM   14  O1  NAG B   1       3.947  31.738  32.531  1.00 46.64    -0.188 OA
HETATM   15  O5  NAG B   1       3.388  31.497  30.314  1.00 32.95    -0.325 OA
HETATM   16  C5  NAG B   1       3.500  30.583  29.160  1.00 38.82     0.181 C 
BRANCH  11  17
HETATM   17  N2  NAG B   1       3.194  29.172  33.209  1.00 30.31    -0.232 NA
HETATM   18  C7  NAG B   1       2.335  29.110  34.256  1.00 19.61     0.252 C 
HETATM   19  O7  NAG B   1       1.280  29.549  34.182  1.00 24.37    -0.271 OA
HETATM   20  C8  NAG B   1       2.898  28.431  35.453  1.00 14.43     0.100 C 
ENDBRANCH  11  17
BRANCH  16  21
HETATM   21  C6  NAG B   1       3.098  31.371  27.938  1.00 50.43     0.214 C 
HETATM   22  O6  NAG B   1       4.245  31.649  27.007  1.00 38.95    -0.218 OA
ENDBRANCH  16  21
ENDBRANCH   8   9
ENDBRANCH   1   8
BRANCH   2  23
HETATM   23  N2  NAG B   2       3.991  25.671  29.412  1.00 47.13    -0.232 NA
HETATM   24  C7  NAG B   2       2.839  25.050  29.765  1.00 36.27     0.252 C 
HETATM   25  O7  NAG B   2       1.961  24.936  29.032  1.00 77.29    -0.271 OA
HETATM   26  C8  NAG B   2       2.816  24.532  31.166  1.00 25.48     0.100 C 
ENDBRANCH   2  23
BRANCH   6  27
HETATM   27  C6  NAG B   2       6.303  28.591  25.035  1.00 41.21     0.214 C 
HETATM   28  O6  NAG B   2       5.091  29.311  24.490  1.00 29.51    -0.218 OA
ENDBRANCH   6  27
BRANCH   5  29
HETATM   29  O4  NAG B   2       7.232  26.070  25.648  1.00 37.56    -0.327 OA
BRANCH  29  30
HETATM   30  C1  NAG B   3       8.616  25.916  26.063  1.00 31.25     0.262 C 
HETATM   31  C2  NAG B   3       9.695  26.329  25.066  1.00 50.86     0.195 C 
HETATM   32  C3  NAG B   3      11.039  25.909  25.572  1.00 27.28     0.212 C 
HETATM   33  O3  NAG B   3      12.044  26.623  24.825  1.00 49.98    -0.218 OA
HETATM   34  C4  NAG B   3      11.223  26.260  27.079  1.00 62.31     0.214 C 
HETATM   35  O4  NAG B   3      12.346  25.484  27.617  1.00 75.30    -0.218 OA
HETATM   36  C5  NAG B   3      10.005  25.941  27.971  1.00 37.66     0.184 C 
HETATM   37  O5  NAG B   3       8.815  26.470  27.379  1.00 55.96    -0.327 OA
BRANCH  31  38
HETATM   38  N2  NAG B   3       9.327  25.582  23.775  1.00 55.71    -0.232 NA
HETATM   39  C7  NAG B   3       9.509  26.104  22.548  1.00 64.76     0.252 C 
HETATM   40  O7  NAG B   3       9.668  27.233  22.387  1.00 66.12    -0.271 OA
HETATM   41  C8  NAG B   3       9.507  25.102  21.445  1.00 56.03     0.100 C 
ENDBRANCH  31  38
BRANCH  36  42
HETATM   42  C6  NAG B   3      10.123  26.613  29.332  1.00 49.19     0.214 C 
HETATM   43  O6  NAG B   3       8.832  27.067  29.843  1.00 68.92    -0.218 OA
ENDBRANCH  36  42
ENDBRANCH  29  30
ENDBRANCH   5  29
TORSDOF 10
ENDMDL
MODEL 8
REMARK VINA RESULT:    -6.157      1.989     10.058
REMARK INTER + INTRA:         -12.099
REMARK INTER:                 -10.507
REMARK INTRA:                  -1.592
REMARK UNBOUND:                -2.342
REMARK  10 active torsions:
REMARK  status: ('A' for Active; 'I' for Inactive)
REMARK    1  A    between atoms: C2_3  and  N2_4 
REMARK       I    between atoms: N2_4  and  C7_13 
REMARK    2  A    between atoms: C4_7  and  O4_8 
REMARK    3  A    between atoms: O4_8  and  C1_16 
REMARK    4  A    between atoms: C5_9  and  C6_11 
REMARK    5  A    between atoms: C2_17  and  N2_18 
REMARK       I    between atoms: N2_18  and  C7_27 
REMARK    6  A    between atoms: C4_21  and  O4_22 
REMARK    7  A    between atoms: O4_22  and  C1_30 
REMARK    8  A    between atoms: C5_23  and  C6_25 
REMARK    9  A    between atoms: C2_31  and  N2_32 
REMARK       I    between atoms: N2_32  and  C7_41 
REMARK   10  A    between atoms: C5_37  and  C6_39 
ROOT
HETATM    1  C1  NAG B   2       6.848  26.413  25.515  1.00 24.54     0.262 C 
HETATM    2  C2  NAG B   2       6.459  25.370  24.307  1.00 38.18     0.195 C 
HETATM    3  C3  NAG B   2       7.780  24.867  23.644  1.00 40.28     0.209 C 
HETATM    4  O3  NAG B   2       7.444  24.072  22.495  1.00 44.52    -0.218 OA
HETATM    5  C4  NAG B   2       8.540  26.194  23.279  1.00 31.56     0.180 C 
HETATM    6  C5  NAG B   2       8.877  27.082  24.574  1.00 25.00     0.180 C 
HETATM    7  O5  NAG B   2       7.562  27.606  25.014  1.00 56.77    -0.327 OA
ENDROOT
BRANCH   1   8
HETATM    8  O4  NAG B   1       5.605  26.874  26.164  1.00 46.30    -0.327 OA
BRANCH   8   9
HETATM    9  C4  NAG B   1       5.288  26.738  27.697  1.00 41.63     0.180 C 
HETATM   10  C3  NAG B   1       3.738  26.954  27.818  1.00 14.31     0.209 C 
HETATM   11  C2  NAG B   1       3.290  26.467  29.181  1.00 29.05     0.198 C 
HETATM   12  O3  NAG B   1       3.497  28.355  27.623  1.00 28.14    -0.218 OA
HETATM   13  C1  NAG B   1       3.846  25.043  29.433  1.00 32.10     0.295 C 
HETATM   14  O1  NAG B   1       3.391  24.694  30.736  1.00 46.64    -0.188 OA
HETATM   15  O5  NAG B   1       5.312  25.199  29.578  1.00 32.95    -0.325 OA
HETATM   16  C5  NAG B   1       5.851  25.408  28.220  1.00 38.82     0.181 C 
BRANCH  11  17
HETATM   17  N2  NAG B   1       1.818  26.439  29.290  1.00 30.31    -0.232 NA
HETATM   18  C7  NAG B   1       1.094  27.374  29.954  1.00 19.61     0.252 C 
HETATM   19  O7  NAG B   1       1.608  28.234  30.509  1.00 24.37    -0.271 OA
HETATM   20  C8  NAG B   1      -0.375  27.162  29.873  1.00 14.43     0.100 C 
ENDBRANCH  11  17
BRANCH  16  21
HETATM   21  C6  NAG B   1       7.356  25.405  28.342  1.00 50.43     0.214 C 
HETATM   22  O6  NAG B   1       7.888  26.554  29.152  1.00 38.95    -0.218 OA
ENDBRANCH  16  21
ENDBRANCH   8   9
ENDBRANCH   1   8
BRANCH   2  23
HETATM   23  N2  NAG B   2       5.707  24.210  24.796  1.00 47.13    -0.232 NA
HETATM   24  C7  NAG B   2       4.720  23.593  24.099  1.00 36.27     0.252 C 
HETATM   25  O7  NAG B   2       4.347  23.996  23.090  1.00 77.29    -0.271 OA
HETATM   26  C8  NAG B   2       4.177  22.361  24.747  1.00 25.48     0.100 C 
ENDBRANCH   2  23
BRANCH   6  27
HETATM   27  C6  NAG B   2       9.762  28.236  24.191  1.00 41.21     0.214 C 
HETATM   28  O6  NAG B   2       8.899  29.476  24.232  1.00 29.51    -0.218 OA
ENDBRANCH   6  27
BRANCH   5  29
HETATM   29  O4  NAG B   2       9.816  25.982  22.607  1.00 37.56    -0.327 OA
BRANCH  29  30
HETATM   30  C1  NAG B   3      10.335  25.985  21.249  1.00 31.25     0.262 C 
HETATM   31  C2  NAG B   3      11.851  26.038  21.080  1.00 50.86     0.195 C 
HETATM   32  C3  NAG B   3      12.192  26.245  19.638  1.00 27.28     0.212 C 
HETATM   33  O3  NAG B   3      13.584  25.919  19.454  1.00 49.98    -0.218 OA
HETATM   34  C4  NAG B   3      11.356  25.316  18.708  1.00 62.31     0.214 C 
HETATM   35  O4  NAG B   3      11.419  25.831  17.336  1.00 75.30    -0.218 OA
HETATM   36  C5  NAG B   3       9.859  25.217  19.069  1.00 37.66     0.184 C 
HETATM   37  O5  NAG B   3       9.710  24.949  20.466  1.00 55.96    -0.327 OA
BRANCH  31  38
HETATM   38  N2  NAG B   3      12.288  27.236  21.935  1.00 55.71    -0.232 NA
HETATM   39  C7  NAG B   3      13.378  27.215  22.724  1.00 64.76     0.252 C 
HETATM   40  O7  NAG B   3      13.878  26.227  23.042  1.00 66.12    -0.271 OA
HETATM   41  C8  NAG B   3      13.877  28.562  23.123  1.00 56.03     0.100 C 
ENDBRANCH  31  38
BRANCH  36  42
HETATM   42  C6  NAG B   3       9.191  24.053  18.351  1.00 49.19     0.214 C 
HETATM   43  O6  NAG B   3       8.676  23.048  19.278  1.00 68.92    -0.218 OA
ENDBRANCH  36  42
ENDBRANCH  29  30
ENDBRANCH   5  29
TORSDOF 10
ENDMDL
MODEL 9
REMARK VINA RESULT:    -6.130      2.562      5.622
REMARK INTER + INTRA:         -12.056
REMARK INTER:                 -10.202
REMARK INTRA:                  -1.854
REMARK UNBOUND:                -2.342
REMARK  10 active torsions:
REMARK  status: ('A' for Active; 'I' for Inactive)
REMARK    1  A    between atoms: C2_3  and  N2_4 
REMARK       I    between atoms: N2_4  and  C7_13 
REMARK    2  A    between atoms: C4_7  and  O4_8 
REMARK    3  A    between atoms: O4_8  and  C1_16 
REMARK    4  A    between atoms: C5_9  and  C6_11 
REMARK    5  A    between atoms: C2_17  and  N2_18 
REMARK       I    between atoms: N2_18  and  C7_27 
REMARK    6  A    between atoms: C4_21  and  O4_22 
REMARK    7  A    between atoms: O4_22  and  C1_30 
REMARK    8  A    between atoms: C5_23  and  C6_25 
REMARK    9  A    between atoms: C2_31  and  N2_32 
REMARK       I    between atoms: N2_32  and  C7_41 
REMARK   10  A    between atoms: C5_37  and  C6_39 
ROOT
HETATM    1  C1  NAG B   2       9.843  25.540  22.667  1.00 24.54     0.262 C 
HETATM    2  C2  NAG B   2      10.197  26.234  24.114  1.00 38.18     0.195 C 
HETATM    3  C3  NAG B   2       9.601  25.341  25.248  1.00 40.28     0.209 C 
HETATM    4  O3  NAG B   2       9.778  26.015  26.505  1.00 44.52    -0.218 OA
HETATM    5  C4  NAG B   2       8.092  25.179  24.838  1.00 31.56     0.180 C 
HETATM    6  C5  NAG B   2       7.918  24.452  23.417  1.00 25.00     0.180 C 
HETATM    7  O5  NAG B   2       8.387  25.455  22.430  1.00 56.77    -0.327 OA
ENDROOT
BRANCH   1   8
HETATM    8  O4  NAG B   1      10.425  26.365  21.590  1.00 46.30    -0.327 OA
BRANCH   8   9
HETATM    9  C4  NAG B   1      11.336  25.818  20.432  1.00 41.63     0.180 C 
HETATM   10  C3  NAG B   1      12.804  25.925  20.976  1.00 14.31     0.209 C 
HETATM   11  C2  NAG B   1      13.705  25.078  20.101  1.00 29.05     0.198 C 
HETATM   12  O3  NAG B   1      13.155  27.316  20.952  1.00 28.14    -0.218 OA
HETATM   13  C1  NAG B   1      13.092  23.664  19.938  1.00 32.10     0.295 C 
HETATM   14  O1  NAG B   1      13.995  22.966  19.088  1.00 46.64    -0.188 OA
HETATM   15  O5  NAG B   1      11.870  23.842  19.122  1.00 32.95    -0.325 OA
HETATM   16  C5  NAG B   1      10.846  24.424  20.012  1.00 38.82     0.181 C 
BRANCH  11  17
HETATM   17  N2  NAG B   1      15.060  24.957  20.673  1.00 30.31    -0.232 NA
HETATM   18  C7  NAG B   1      16.157  25.554  20.144  1.00 19.61     0.252 C 
HETATM   19  O7  NAG B   1      16.088  26.168  19.179  1.00 24.37    -0.271 OA
HETATM   20  C8  NAG B   1      17.397  25.333  20.932  1.00 14.43     0.100 C 
ENDBRANCH  11  17
BRANCH  16  21
HETATM   21  C6  NAG B   1       9.555  24.455  19.231  1.00 50.43     0.214 C 
HETATM   22  O6  NAG B   1       9.466  23.377  18.187  1.00 38.95    -0.218 OA
ENDBRANCH  16  21
ENDBRANCH   8   9
ENDBRANCH   1   8
BRANCH   2  23
HETATM   23  N2  NAG B   2      11.642  26.364  24.328  1.00 47.13    -0.232 NA
HETATM   24  C7  NAG B   2      12.303  27.548  24.363  1.00 36.27     0.252 C 
HETATM   25  O7  NAG B   2      11.774  28.545  24.144  1.00 77.29    -0.271 OA
HETATM   26  C8  NAG B   2      13.751  27.442  24.712  1.00 25.48     0.100 C 
ENDBRANCH   2  23
BRANCH   6  27
HETATM   27  C6  NAG B   2       6.466  24.157  23.163  1.00 41.21     0.214 C 
HETATM   28  O6  NAG B   2       6.246  24.304  21.675  1.00 29.51    -0.218 OA
ENDBRANCH   6  27
BRANCH   5  29
HETATM   29  O4  NAG B   2       7.302  24.394  25.779  1.00 37.56    -0.327 OA
BRANCH  29  30
HETATM   30  C1  NAG B   3       6.043  24.515  26.495  1.00 31.25     0.262 C 
HETATM   31  C2  NAG B   3       5.723  25.868  27.124  1.00 50.86     0.195 C 
HETATM   32  C3  NAG B   3       4.508  25.751  27.988  1.00 27.28     0.212 C 
HETATM   33  O3  NAG B   3       4.016  27.079  28.256  1.00 49.98    -0.218 OA
HETATM   34  C4  NAG B   3       3.371  24.954  27.279  1.00 62.31     0.214 C 
HETATM   35  O4  NAG B   3       2.394  24.519  28.284  1.00 75.30    -0.218 OA
HETATM   36  C5  NAG B   3       3.836  23.680  26.543  1.00 37.66     0.184 C 
HETATM   37  O5  NAG B   3       4.959  23.980  25.709  1.00 55.96    -0.327 OA
BRANCH  31  38
HETATM   38  N2  NAG B   3       6.969  26.206  27.955  1.00 55.71    -0.232 NA
HETATM   39  C7  NAG B   3       7.390  27.467  28.166  1.00 64.76     0.252 C 
HETATM   40  O7  NAG B   3       7.035  28.343  27.508  1.00 66.12    -0.271 OA
HETATM   41  C8  NAG B   3       8.323  27.622  29.318  1.00 56.03     0.100 C 
ENDBRANCH  31  38
BRANCH  36  42
HETATM   42  C6  NAG B   3       2.756  23.155  25.607  1.00 49.19     0.214 C 
HETATM   43  O6  NAG B   3       3.097  21.853  25.037  1.00 68.92    -0.218 OA
ENDBRANCH  36  42
ENDBRANCH  29  30
ENDBRANCH   5  29
TORSDOF 10
ENDMDL
