MODEL 1
REMARK VINA RESULT:    -6.973      0.000      0.000
REMARK INTER + INTRA:         -13.394
REMARK INTER:                 -11.050
REMARK INTRA:                  -2.345
REMARK UNBOUND:                -2.345
REMARK  10 active torsions:
REMARK  status: ('A' for Active; 'I' for Inactive)
REMARK    1  A    between atoms: C2_3  and  N2_4 
REMARK       I    between atoms: N2_4  and  C7_13 
REMARK    2  A    between atoms: C4_7  and  O4_8 
REMARK    3  A    between atoms: O4_8  and  C1_16 
REMARK    4  A    between atoms: C5_9  and  C6_11 
REMARK    5  A    between atoms: C2_17  and  N2_18 
REMARK       I    between atoms: N2_18  and  C7_27 
REMARK    6  A    between atoms: C4_21  and  O4_22 
REMARK    7  A    between atoms: O4_22  and  C1_30 
REMARK    8  A    between atoms: C5_23  and  C6_25 
REMARK    9  A    between atoms: C2_31  and  N2_32 
REMARK       I    between atoms: N2_32  and  C7_41 
REMARK   10  A    between atoms: C5_37  and  C6_39 
ROOT
HETATM    1  C1  NAG B   2       6.855  25.024  25.538  1.00 24.54     0.262 C 
HETATM    2  C2  NAG B   2       5.575  24.161  26.099  1.00 38.18     0.195 C 
HETATM    3  C3  NAG B   2       4.951  24.932  27.305  1.00 40.28     0.209 C 
HETATM    4  O3  NAG B   2       3.927  24.113  27.894  1.00 44.52    -0.218 OA
HETATM    5  C4  NAG B   2       6.174  25.178  28.262  1.00 31.56     0.180 C 
HETATM    6  C5  NAG B   2       7.321  26.067  27.573  1.00 25.00     0.180 C 
HETATM    7  O5  NAG B   2       7.918  25.173  26.553  1.00 56.77    -0.327 OA
ENDROOT
BRANCH   1   8
HETATM    8  O4  NAG B   1       7.435  24.314  24.381  1.00 46.30    -0.327 OA
BRANCH   8   9
HETATM    9  C4  NAG B   1       7.702  24.959  22.972  1.00 41.63     0.180 C 
HETATM   10  C3  NAG B   1       9.224  25.342  22.977  1.00 14.31     0.209 C 
HETATM   11  C2  NAG B   1       9.658  25.609  21.550  1.00 29.05     0.198 C 
HETATM   12  O3  NAG B   1       9.361  26.492  23.822  1.00 28.14    -0.218 OA
HETATM   13  C1  NAG B   1       9.206  24.438  20.641  1.00 32.10     0.295 C 
HETATM   14  O1  NAG B   1       9.637  24.797  19.333  1.00 46.64    -0.188 OA
HETATM   15  O5  NAG B   1       7.728  24.514  20.583  1.00 32.95    -0.325 OA
HETATM   16  C5  NAG B   1       7.226  23.999  21.872  1.00 38.82     0.181 C 
BRANCH  11  17
HETATM   17  N2  NAG B   1      11.122  25.766  21.447  1.00 30.31    -0.232 NA
HETATM   18  C7  NAG B   1      11.736  26.949  21.198  1.00 19.61     0.252 C 
HETATM   19  O7  NAG B   1      11.130  27.903  21.014  1.00 24.37    -0.271 OA
HETATM   20  C8  NAG B   1      13.220  26.864  21.201  1.00 14.43     0.100 C 
ENDBRANCH  11  17
BRANCH  16  21
HETATM   21  C6  NAG B   1       5.723  23.922  21.756  1.00 50.43     0.214 C 
HETATM   22  O6  NAG B   1       5.036  25.216  22.092  1.00 38.95    -0.218 OA
ENDBRANCH  16  21
ENDBRANCH   8   9
ENDBRANCH   1   8
BRANCH   2  23
HETATM   23  N2  NAG B   2       4.541  23.970  25.077  1.00 47.13    -0.232 NA
HETATM   24  C7  NAG B   2       3.803  22.841  24.942  1.00 36.27     0.252 C 
HETATM   25  O7  NAG B   2       3.998  21.908  25.585  1.00 77.29    -0.271 OA
HETATM   26  C8  NAG B   2       2.730  22.919  23.907  1.00 25.48     0.100 C 
ENDBRANCH   2  23
BRANCH   6  27
HETATM   27  C6  NAG B   2       8.372  26.426  28.586  1.00 41.21     0.214 C 
HETATM   28  O6  NAG B   2       9.710  26.144  27.942  1.00 29.51    -0.218 OA
ENDBRANCH   6  27
BRANCH   5  29
HETATM   29  O4  NAG B   2       5.832  25.869  29.499  1.00 37.56    -0.327 OA
BRANCH  29  30
HETATM   30  C1  NAG B   3       4.649  26.427  30.132  1.00 31.25     0.262 C 
HETATM   31  C2  NAG B   3       3.816  27.411  29.314  1.00 50.86     0.195 C 
HETATM   32  C3  NAG B   3       2.773  28.036  30.185  1.00 27.28     0.212 C 
HETATM   33  O3  NAG B   3       1.786  28.653  29.334  1.00 49.98    -0.218 OA
HETATM   34  C4  NAG B   3       2.048  26.977  31.069  1.00 62.31     0.214 C 
HETATM   35  O4  NAG B   3       1.355  27.664  32.165  1.00 75.30    -0.218 OA
HETATM   36  C5  NAG B   3       2.978  25.936  31.725  1.00 37.66     0.184 C 
HETATM   37  O5  NAG B   3       3.863  25.386  30.745  1.00 55.96    -0.327 OA
BRANCH  31  38
HETATM   38  N2  NAG B   3       4.831  28.453  28.822  1.00 55.71    -0.232 NA
HETATM   39  C7  NAG B   3       4.850  28.918  27.560  1.00 64.76     0.252 C 
HETATM   40  O7  NAG B   3       4.319  28.365  26.701  1.00 66.12    -0.271 OA
HETATM   41  C8  NAG B   3       5.591  30.200  27.386  1.00 56.03     0.100 C 
ENDBRANCH  31  38
BRANCH  36  42
HETATM   42  C6  NAG B   3       2.190  24.756  32.276  1.00 49.19     0.214 C 
HETATM   43  O6  NAG B   3       1.952  24.868  33.713  1.00 68.92    -0.218 OA
ENDBRANCH  36  42
ENDBRANCH  29  30
ENDBRANCH   5  29
TORSDOF 10
ENDMDL
MODEL 2
REMARK VINA RESULT:    -6.653      2.567      9.021
REMARK INTER + INTRA:         -12.886
REMARK INTER:                 -10.689
REMARK INTRA:                  -2.198
REMARK UNBOUND:                -2.345
REMARK  10 active torsions:
REMARK  status: ('A' for Active; 'I' for Inactive)
REMARK    1  A    between atoms: C2_3  and  N2_4 
REMARK       I    between atoms: N2_4  and  C7_13 
REMARK    2  A    between atoms: C4_7  and  O4_8 
REMARK    3  A    between atoms: O4_8  and  C1_16 
REMARK    4  A    between atoms: C5_9  and  C6_11 
REMARK    5  A    between atoms: C2_17  and  N2_18 
REMARK       I    between atoms: N2_18  and  C7_27 
REMARK    6  A    between atoms: C4_21  and  O4_22 
REMARK    7  A    between atoms: O4_22  and  C1_30 
REMARK    8  A    between atoms: C5_23  and  C6_25 
REMARK    9  A    between atoms: C2_31  and  N2_32 
REMARK       I    between atoms: N2_32  and  C7_41 
REMARK   10  A    between atoms: C5_37  and  C6_39 
ROOT
HETATM    1  C1  NAG B   2       4.867  26.258  30.091  1.00 24.54     0.262 C 
HETATM    2  C2  NAG B   2       3.626  25.956  29.058  1.00 38.18     0.195 C 
HETATM    3  C3  NAG B   2       4.024  24.750  28.149  1.00 40.28     0.209 C 
HETATM    4  O3  NAG B   2       3.009  24.575  27.147  1.00 44.52    -0.218 OA
HETATM    5  C4  NAG B   2       5.415  25.175  27.555  1.00 31.56     0.180 C 
HETATM    6  C5  NAG B   2       6.526  25.396  28.693  1.00 25.00     0.180 C 
HETATM    7  O5  NAG B   2       6.105  26.640  29.382  1.00 56.77    -0.327 OA
ENDROOT
BRANCH   1   8
HETATM    8  O4  NAG B   1       4.489  27.381  30.971  1.00 46.30    -0.327 OA
BRANCH   8   9
HETATM    9  C4  NAG B   1       5.049  28.845  30.850  1.00 41.63     0.180 C 
HETATM   10  C3  NAG B   1       3.994  29.620  29.985  1.00 14.31     0.209 C 
HETATM   11  C2  NAG B   1       4.245  31.106  30.137  1.00 29.05     0.198 C 
HETATM   12  O3  NAG B   1       4.152  29.166  28.633  1.00 28.14    -0.218 OA
HETATM   13  C1  NAG B   1       4.354  31.464  31.641  1.00 32.10     0.295 C 
HETATM   14  O1  NAG B   1       4.611  32.864  31.670  1.00 46.64    -0.188 OA
HETATM   15  O5  NAG B   1       5.611  30.842  32.117  1.00 32.95    -0.325 OA
HETATM   16  C5  NAG B   1       5.342  29.397  32.254  1.00 38.82     0.181 C 
BRANCH  11  17
HETATM   17  N2  NAG B   1       3.164  31.905  29.525  1.00 30.31    -0.232 NA
HETATM   18  C7  NAG B   1       3.267  32.508  28.315  1.00 19.61     0.252 C 
HETATM   19  O7  NAG B   1       4.238  32.456  27.709  1.00 24.37    -0.271 OA
HETATM   20  C8  NAG B   1       2.026  33.205  27.887  1.00 14.43     0.100 C 
ENDBRANCH  11  17
BRANCH  16  21
HETATM   21  C6  NAG B   1       6.565  28.784  32.891  1.00 50.43     0.214 C 
HETATM   22  O6  NAG B   1       7.736  28.682  31.954  1.00 38.95    -0.218 OA
ENDBRANCH  16  21
ENDBRANCH   8   9
ENDBRANCH   1   8
BRANCH   2  23
HETATM   23  N2  NAG B   2       2.383  25.625  29.762  1.00 47.13    -0.232 NA
HETATM   24  C7  NAG B   2       1.290  26.426  29.795  1.00 36.27     0.252 C 
HETATM   25  O7  NAG B   2       1.293  27.477  29.328  1.00 77.29    -0.271 OA
HETATM   26  C8  NAG B   2       0.102  25.830  30.475  1.00 25.48     0.100 C 
ENDBRANCH   2  23
BRANCH   6  27
HETATM   27  C6  NAG B   2       7.873  25.616  28.063  1.00 41.21     0.214 C 
HETATM   28  O6  NAG B   2       8.729  24.430  28.444  1.00 29.51    -0.218 OA
ENDBRANCH   6  27
BRANCH   5  29
HETATM   29  O4  NAG B   2       5.989  24.204  26.631  1.00 37.56    -0.327 OA
BRANCH  29  30
HETATM   30  C1  NAG B   3       6.361  24.137  25.227  1.00 31.25     0.262 C 
HETATM   31  C2  NAG B   3       5.227  24.072  24.207  1.00 50.86     0.195 C 
HETATM   32  C3  NAG B   3       5.786  23.797  22.847  1.00 27.28     0.212 C 
HETATM   33  O3  NAG B   3       4.773  24.111  21.871  1.00 49.98    -0.218 OA
HETATM   34  C4  NAG B   3       7.032  24.684  22.545  1.00 62.31     0.214 C 
HETATM   35  O4  NAG B   3       7.768  24.105  21.416  1.00 75.30    -0.218 OA
HETATM   36  C5  NAG B   3       8.039  24.803  23.708  1.00 37.66     0.184 C 
HETATM   37  O5  NAG B   3       7.351  25.137  24.917  1.00 55.96    -0.327 OA
BRANCH  31  38
HETATM   38  N2  NAG B   3       4.344  22.914  24.692  1.00 55.71    -0.232 NA
HETATM   39  C7  NAG B   3       3.032  22.823  24.404  1.00 64.76     0.252 C 
HETATM   40  O7  NAG B   3       2.426  23.732  24.040  1.00 66.12    -0.271 OA
HETATM   41  C8  NAG B   3       2.456  21.459  24.578  1.00 56.03     0.100 C 
ENDBRANCH  31  38
BRANCH  36  42
HETATM   42  C6  NAG B   3       9.030  25.934  23.471  1.00 49.19     0.214 C 
HETATM   43  O6  NAG B   3       8.450  27.248  23.736  1.00 68.92    -0.218 OA
ENDBRANCH  36  42
ENDBRANCH  29  30
ENDBRANCH   5  29
TORSDOF 10
ENDMDL
MODEL 3
REMARK VINA RESULT:    -6.511      2.351     10.036
REMARK INTER + INTRA:         -12.661
REMARK INTER:                 -10.260
REMARK INTRA:                  -2.402
REMARK UNBOUND:                -2.345
REMARK  10 active torsions:
REMARK  status: ('A' for Active; 'I' for Inactive)
REMARK    1  A    between atoms: C2_3  and  N2_4 
REMARK       I    between atoms: N2_4  and  C7_13 
REMARK    2  A    between atoms: C4_7  and  O4_8 
REMARK    3  A    between atoms: O4_8  and  C1_16 
REMARK    4  A    between atoms: C5_9  and  C6_11 
REMARK    5  A    between atoms: C2_17  and  N2_18 
REMARK       I    between atoms: N2_18  and  C7_27 
REMARK    6  A    between atoms: C4_21  and  O4_22 
REMARK    7  A    between atoms: O4_22  and  C1_30 
REMARK    8  A    between atoms: C5_23  and  C6_25 
REMARK    9  A    between atoms: C2_31  and  N2_32 
REMARK       I    between atoms: N2_32  and  C7_41 
REMARK   10  A    between atoms: C5_37  and  C6_39 
ROOT
HETATM    1  C1  NAG B   2       7.684  24.803  25.409  1.00 24.54     0.262 C 
HETATM    2  C2  NAG B   2       9.302  25.039  25.565  1.00 38.18     0.195 C 
HETATM    3  C3  NAG B   2       9.796  25.889  24.353  1.00 40.28     0.209 C 
HETATM    4  O3  NAG B   2      11.230  25.974  24.404  1.00 44.52    -0.218 OA
HETATM    5  C4  NAG B   2       9.267  25.097  23.103  1.00 31.56     0.180 C 
HETATM    6  C5  NAG B   2       7.665  24.986  23.082  1.00 25.00     0.180 C 
HETATM    7  O5  NAG B   2       7.345  24.048  24.184  1.00 56.77    -0.327 OA
ENDROOT
BRANCH   1   8
HETATM    8  O4  NAG B   1       7.205  24.020  26.565  1.00 46.30    -0.327 OA
BRANCH   8   9
HETATM    9  C4  NAG B   1       5.979  24.410  27.468  1.00 41.63     0.180 C 
HETATM   10  C3  NAG B   1       6.435  25.691  28.252  1.00 14.31     0.209 C 
HETATM   11  C2  NAG B   1       5.209  26.355  28.845  1.00 29.05     0.198 C 
HETATM   12  O3  NAG B   1       7.369  25.256  29.250  1.00 28.14    -0.218 OA
HETATM   13  C1  NAG B   1       4.126  26.521  27.750  1.00 32.10     0.295 C 
HETATM   14  O1  NAG B   1       3.021  27.126  28.413  1.00 46.64    -0.188 OA
HETATM   15  O5  NAG B   1       3.665  25.153  27.422  1.00 32.95    -0.325 OA
HETATM   16  C5  NAG B   1       4.721  24.537  26.595  1.00 38.82     0.181 C 
BRANCH  11  17
HETATM   17  N2  NAG B   1       5.531  27.678  29.416  1.00 30.31    -0.232 NA
HETATM   18  C7  NAG B   1       5.594  27.928  30.747  1.00 19.61     0.252 C 
HETATM   19  O7  NAG B   1       5.358  27.111  31.514  1.00 24.37    -0.271 OA
HETATM   20  C8  NAG B   1       5.994  29.322  31.075  1.00 14.43     0.100 C 
ENDBRANCH  11  17
BRANCH  16  21
HETATM   21  C6  NAG B   1       4.186  23.206  26.125  1.00 50.43     0.214 C 
HETATM   22  O6  NAG B   1       4.347  22.991  24.646  1.00 38.95    -0.218 OA
ENDBRANCH  16  21
ENDBRANCH   8   9
ENDBRANCH   1   8
BRANCH   2  23
HETATM   23  N2  NAG B   2       9.644  25.744  26.805  1.00 47.13    -0.232 NA
HETATM   24  C7  NAG B   2      10.485  25.258  27.751  1.00 36.27     0.252 C 
HETATM   25  O7  NAG B   2      10.935  24.202  27.678  1.00 77.29    -0.271 OA
HETATM   26  C8  NAG B   2      10.774  26.202  28.871  1.00 25.48     0.100 C 
ENDBRANCH   2  23
BRANCH   6  27
HETATM   27  C6  NAG B   2       7.207  24.388  21.780  1.00 41.21     0.214 C 
HETATM   28  O6  NAG B   2       5.696  24.442  21.786  1.00 29.51    -0.218 OA
ENDBRANCH   6  27
BRANCH   5  29
HETATM   29  O4  NAG B   2       9.635  25.689  21.823  1.00 37.56    -0.327 OA
BRANCH  29  30
HETATM   30  C1  NAG B   3      10.848  25.972  21.072  1.00 31.25     0.262 C 
HETATM   31  C2  NAG B   3      10.728  26.041  19.552  1.00 50.86     0.195 C 
HETATM   32  C3  NAG B   3      12.091  26.128  18.942  1.00 27.28     0.212 C 
HETATM   33  O3  NAG B   3      11.946  26.565  17.576  1.00 49.98    -0.218 OA
HETATM   34  C4  NAG B   3      12.990  27.163  19.682  1.00 62.31     0.214 C 
HETATM   35  O4  NAG B   3      14.393  26.918  19.327  1.00 75.30    -0.218 OA
HETATM   36  C5  NAG B   3      12.913  27.104  21.222  1.00 37.66     0.184 C 
HETATM   37  O5  NAG B   3      11.545  27.097  21.642  1.00 55.96    -0.327 OA
BRANCH  31  38
HETATM   38  N2  NAG B   3      10.025  24.732  19.165  1.00 55.71    -0.232 NA
HETATM   39  C7  NAG B   3       9.075  24.664  18.215  1.00 64.76     0.252 C 
HETATM   40  O7  NAG B   3       8.519  25.602  17.844  1.00 66.12    -0.271 OA
HETATM   41  C8  NAG B   3       8.830  23.292  17.685  1.00 56.03     0.100 C 
ENDBRANCH  31  38
BRANCH  36  42
HETATM   42  C6  NAG B   3      13.533  28.340  21.857  1.00 49.19     0.214 C 
HETATM   43  O6  NAG B   3      12.908  28.686  23.131  1.00 68.92    -0.218 OA
ENDBRANCH  36  42
ENDBRANCH  29  30
ENDBRANCH   5  29
TORSDOF 10
ENDMDL
MODEL 4
REMARK VINA RESULT:    -6.495      2.317     10.067
REMARK INTER + INTRA:         -12.636
REMARK INTER:                 -10.271
REMARK INTRA:                  -2.365
REMARK UNBOUND:                -2.345
REMARK  10 active torsions:
REMARK  status: ('A' for Active; 'I' for Inactive)
REMARK    1  A    between atoms: C2_3  and  N2_4 
REMARK       I    between atoms: N2_4  and  C7_13 
REMARK    2  A    between atoms: C4_7  and  O4_8 
REMARK    3  A    between atoms: O4_8  and  C1_16 
REMARK    4  A    between atoms: C5_9  and  C6_11 
REMARK    5  A    between atoms: C2_17  and  N2_18 
REMARK       I    between atoms: N2_18  and  C7_27 
REMARK    6  A    between atoms: C4_21  and  O4_22 
REMARK    7  A    between atoms: O4_22  and  C1_30 
REMARK    8  A    between atoms: C5_23  and  C6_25 
REMARK    9  A    between atoms: C2_31  and  N2_32 
REMARK       I    between atoms: N2_32  and  C7_41 
REMARK   10  A    between atoms: C5_37  and  C6_39 
ROOT
HETATM    1  C1  NAG B   2       7.673  24.862  25.378  1.00 24.54     0.262 C 
HETATM    2  C2  NAG B   2       9.299  25.049  25.513  1.00 38.18     0.195 C 
HETATM    3  C3  NAG B   2       9.784  25.989  24.364  1.00 40.28     0.209 C 
HETATM    4  O3  NAG B   2      11.221  26.038  24.385  1.00 44.52    -0.218 OA
HETATM    5  C4  NAG B   2       9.206  25.317  23.066  1.00 31.56     0.180 C 
HETATM    6  C5  NAG B   2       7.602  25.244  23.077  1.00 25.00     0.180 C 
HETATM    7  O5  NAG B   2       7.287  24.222  24.104  1.00 56.77    -0.327 OA
ENDROOT
BRANCH   1   8
HETATM    8  O4  NAG B   1       7.203  23.995  26.477  1.00 46.30    -0.327 OA
BRANCH   8   9
HETATM    9  C4  NAG B   1       5.975  24.308  27.407  1.00 41.63     0.180 C 
HETATM   10  C3  NAG B   1       6.385  25.591  28.212  1.00 14.31     0.209 C 
HETATM   11  C2  NAG B   1       5.140  26.184  28.839  1.00 29.05     0.198 C 
HETATM   12  O3  NAG B   1       7.354  25.177  29.187  1.00 28.14    -0.218 OA
HETATM   13  C1  NAG B   1       4.033  26.325  27.764  1.00 32.10     0.295 C 
HETATM   14  O1  NAG B   1       2.912  26.862  28.457  1.00 46.64    -0.188 OA
HETATM   15  O5  NAG B   1       3.629  24.944  27.413  1.00 32.95    -0.325 OA
HETATM   16  C5  NAG B   1       4.699  24.395  26.556  1.00 38.82     0.181 C 
BRANCH  11  17
HETATM   17  N2  NAG B   1       5.410  27.507  29.435  1.00 30.31    -0.232 NA
HETATM   18  C7  NAG B   1       5.478  27.732  30.771  1.00 19.61     0.252 C 
HETATM   19  O7  NAG B   1       5.288  26.889  31.522  1.00 24.37    -0.271 OA
HETATM   20  C8  NAG B   1       5.820  29.134  31.124  1.00 14.43     0.100 C 
ENDBRANCH  11  17
BRANCH  16  21
HETATM   21  C6  NAG B   1       4.218  23.053  26.063  1.00 50.43     0.214 C 
HETATM   22  O6  NAG B   1       4.315  22.898  24.571  1.00 38.95    -0.218 OA
ENDBRANCH  16  21
ENDBRANCH   8   9
ENDBRANCH   1   8
BRANCH   2  23
HETATM   23  N2  NAG B   2       9.687  25.639  26.798  1.00 47.13    -0.232 NA
HETATM   24  C7  NAG B   2      10.500  25.033  27.699  1.00 36.27     0.252 C 
HETATM   25  O7  NAG B   2      10.884  23.961  27.546  1.00 77.29    -0.271 OA
HETATM   26  C8  NAG B   2      10.850  25.873  28.884  1.00 25.48     0.100 C 
ENDBRANCH   2  23
BRANCH   6  27
HETATM   27  C6  NAG B   2       7.099  24.768  21.742  1.00 41.21     0.214 C 
HETATM   28  O6  NAG B   2       5.594  24.680  21.852  1.00 29.51    -0.218 OA
ENDBRANCH   6  27
BRANCH   5  29
HETATM   29  O4  NAG B   2       9.558  26.009  21.831  1.00 37.56    -0.327 OA
BRANCH  29  30
HETATM   30  C1  NAG B   3      10.358  25.759  20.643  1.00 31.25     0.262 C 
HETATM   31  C2  NAG B   3      11.874  25.856  20.788  1.00 50.86     0.195 C 
HETATM   32  C3  NAG B   3      12.517  25.779  19.440  1.00 27.28     0.212 C 
HETATM   33  O3  NAG B   3      13.918  25.496  19.624  1.00 49.98    -0.218 OA
HETATM   34  C4  NAG B   3      11.907  24.636  18.575  1.00 62.31     0.214 C 
HETATM   35  O4  NAG B   3      12.262  24.860  17.168  1.00 75.30    -0.218 OA
HETATM   36  C5  NAG B   3      10.369  24.534  18.626  1.00 37.66     0.184 C 
HETATM   37  O5  NAG B   3       9.924  24.552  19.986  1.00 55.96    -0.327 OA
BRANCH  31  38
HETATM   38  N2  NAG B   3      12.107  27.226  21.441  1.00 55.71    -0.232 NA
HETATM   39  C7  NAG B   3      13.201  27.514  22.171  1.00 64.76     0.252 C 
HETATM   40  O7  NAG B   3      13.878  26.688  22.601  1.00 66.12    -0.271 OA
HETATM   41  C8  NAG B   3      13.458  28.972  22.348  1.00 56.03     0.100 C 
ENDBRANCH  31  38
BRANCH  36  42
HETATM   42  C6  NAG B   3       9.880  23.214  18.049  1.00 49.19     0.214 C 
HETATM   43  O6  NAG B   3       8.539  23.317  17.479  1.00 68.92    -0.218 OA
ENDBRANCH  36  42
ENDBRANCH  29  30
ENDBRANCH   5  29
TORSDOF 10
ENDMDL
MODEL 5
REMARK VINA RESULT:    -6.430      2.362      9.245
REMARK INTER + INTRA:         -12.534
REMARK INTER:                 -10.004
REMARK INTRA:                  -2.529
REMARK UNBOUND:                -2.345
REMARK  10 active torsions:
REMARK  status: ('A' for Active; 'I' for Inactive)
REMARK    1  A    between atoms: C2_3  and  N2_4 
REMARK       I    between atoms: N2_4  and  C7_13 
REMARK    2  A    between atoms: C4_7  and  O4_8 
REMARK    3  A    between atoms: O4_8  and  C1_16 
REMARK    4  A    between atoms: C5_9  and  C6_11 
REMARK    5  A    between atoms: C2_17  and  N2_18 
REMARK       I    between atoms: N2_18  and  C7_27 
REMARK    6  A    between atoms: C4_21  and  O4_22 
REMARK    7  A    between atoms: O4_22  and  C1_30 
REMARK    8  A    between atoms: C5_23  and  C6_25 
REMARK    9  A    between atoms: C2_31  and  N2_32 
REMARK       I    between atoms: N2_32  and  C7_41 
REMARK   10  A    between atoms: C5_37  and  C6_39 
ROOT
HETATM    1  C1  NAG B   2       7.229  25.003  26.722  1.00 24.54     0.262 C 
HETATM    2  C2  NAG B   2       8.826  24.744  27.003  1.00 38.18     0.195 C 
HETATM    3  C3  NAG B   2       9.638  25.318  25.798  1.00 40.28     0.209 C 
HETATM    4  O3  NAG B   2      11.021  24.964  25.965  1.00 44.52    -0.218 OA
HETATM    5  C4  NAG B   2       8.972  24.640  24.546  1.00 31.56     0.180 C 
HETATM    6  C5  NAG B   2       7.420  25.022  24.395  1.00 25.00     0.180 C 
HETATM    7  O5  NAG B   2       6.754  24.305  25.509  1.00 56.77    -0.327 OA
ENDROOT
BRANCH   1   8
HETATM    8  O4  NAG B   1       6.456  24.486  27.868  1.00 46.30    -0.327 OA
BRANCH   8   9
HETATM    9  C4  NAG B   1       5.249  25.230  28.547  1.00 41.63     0.180 C 
HETATM   10  C3  NAG B   1       5.841  26.587  29.067  1.00 14.31     0.209 C 
HETATM   11  C2  NAG B   1       4.693  27.523  29.385  1.00 29.05     0.198 C 
HETATM   12  O3  NAG B   1       6.640  26.278  30.218  1.00 28.14    -0.218 OA
HETATM   13  C1  NAG B   1       3.713  27.570  28.185  1.00 32.10     0.295 C 
HETATM   14  O1  NAG B   1       2.671  28.449  28.594  1.00 46.64    -0.188 OA
HETATM   15  O5  NAG B   1       3.076  26.235  28.127  1.00 32.95    -0.325 OA
HETATM   16  C5  NAG B   1       4.077  25.312  27.557  1.00 38.82     0.181 C 
BRANCH  11  17
HETATM   17  N2  NAG B   1       5.170  28.889  29.676  1.00 30.31    -0.232 NA
HETATM   18  C7  NAG B   1       5.144  29.448  30.911  1.00 19.61     0.252 C 
HETATM   19  O7  NAG B   1       4.704  28.885  31.806  1.00 24.37    -0.271 OA
HETATM   20  C8  NAG B   1       5.734  30.812  30.963  1.00 14.43     0.100 C 
ENDBRANCH  11  17
BRANCH  16  21
HETATM   21  C6  NAG B   1       3.382  23.990  27.345  1.00 50.43     0.214 C 
HETATM   22  O6  NAG B   1       3.533  23.457  25.947  1.00 38.95    -0.218 OA
ENDBRANCH  16  21
ENDBRANCH   8   9
ENDBRANCH   1   8
BRANCH   2  23
HETATM   23  N2  NAG B   2       9.288  25.396  28.233  1.00 47.13    -0.232 NA
HETATM   24  C7  NAG B   2       9.640  24.730  29.361  1.00 36.27     0.252 C 
HETATM   25  O7  NAG B   2       9.524  23.590  29.454  1.00 77.29    -0.271 OA
HETATM   26  C8  NAG B   2      10.189  25.595  30.447  1.00 25.48     0.100 C 
ENDBRANCH   2  23
BRANCH   6  27
HETATM   27  C6  NAG B   2       6.885  24.504  23.089  1.00 41.21     0.214 C 
HETATM   28  O6  NAG B   2       5.521  25.126  22.901  1.00 29.51    -0.218 OA
ENDBRANCH   6  27
BRANCH   5  29
HETATM   29  O4  NAG B   2       9.589  25.002  23.275  1.00 37.56    -0.327 OA
BRANCH  29  30
HETATM   30  C1  NAG B   3      10.179  26.179  22.657  1.00 31.25     0.262 C 
HETATM   31  C2  NAG B   3       9.953  26.369  21.160  1.00 50.86     0.195 C 
HETATM   32  C3  NAG B   3      10.795  27.500  20.661  1.00 27.28     0.212 C 
HETATM   33  O3  NAG B   3      10.296  27.897  19.368  1.00 49.98    -0.218 OA
HETATM   34  C4  NAG B   3      10.717  28.737  21.605  1.00 62.31     0.214 C 
HETATM   35  O4  NAG B   3      11.841  29.633  21.312  1.00 75.30    -0.218 OA
HETATM   36  C5  NAG B   3      10.800  28.410  23.110  1.00 37.66     0.184 C 
HETATM   37  O5  NAG B   3       9.886  27.358  23.433  1.00 55.96    -0.327 OA
BRANCH  31  38
HETATM   38  N2  NAG B   3      10.386  25.033  20.537  1.00 55.71    -0.232 NA
HETATM   39  C7  NAG B   3       9.548  24.245  19.837  1.00 64.76     0.252 C 
HETATM   40  O7  NAG B   3       8.405  24.362  19.907  1.00 66.12    -0.271 OA
HETATM   41  C8  NAG B   3      10.227  23.244  18.966  1.00 56.03     0.100 C 
ENDBRANCH  31  38
BRANCH  36  42
HETATM   42  C6  NAG B   3      10.379  29.599  23.961  1.00 49.19     0.214 C 
HETATM   43  O6  NAG B   3      10.868  29.503  25.334  1.00 68.92    -0.218 OA
ENDBRANCH  36  42
ENDBRANCH  29  30
ENDBRANCH   5  29
TORSDOF 10
ENDMDL
MODEL 6
REMARK VINA RESULT:    -6.283      3.098     10.633
REMARK INTER + INTRA:         -12.300
REMARK INTER:                  -9.730
REMARK INTRA:                  -2.570
REMARK UNBOUND:                -2.345
REMARK  10 active torsions:
REMARK  status: ('A' for Active; 'I' for Inactive)
REMARK    1  A    between atoms: C2_3  and  N2_4 
REMARK       I    between atoms: N2_4  and  C7_13 
REMARK    2  A    between atoms: C4_7  and  O4_8 
REMARK    3  A    between atoms: O4_8  and  C1_16 
REMARK    4  A    between atoms: C5_9  and  C6_11 
REMARK    5  A    between atoms: C2_17  and  N2_18 
REMARK       I    between atoms: N2_18  and  C7_27 
REMARK    6  A    between atoms: C4_21  and  O4_22 
REMARK    7  A    between atoms: O4_22  and  C1_30 
REMARK    8  A    between atoms: C5_23  and  C6_25 
REMARK    9  A    between atoms: C2_31  and  N2_32 
REMARK       I    between atoms: N2_32  and  C7_41 
REMARK   10  A    between atoms: C5_37  and  C6_39 
ROOT
HETATM    1  C1  NAG B   2       3.561  27.126  31.162  1.00 24.54     0.262 C 
HETATM    2  C2  NAG B   2       2.843  26.612  29.777  1.00 38.18     0.195 C 
HETATM    3  C3  NAG B   2       3.756  25.529  29.121  1.00 40.28     0.209 C 
HETATM    4  O3  NAG B   2       3.209  25.183  27.838  1.00 44.52    -0.218 OA
HETATM    5  C4  NAG B   2       5.158  26.233  29.028  1.00 31.56     0.180 C 
HETATM    6  C5  NAG B   2       5.736  26.640  30.470  1.00 25.00     0.180 C 
HETATM    7  O5  NAG B   2       4.871  27.761  30.910  1.00 56.77    -0.327 OA
ENDROOT
BRANCH   1   8
HETATM    8  O4  NAG B   1       2.691  28.133  31.802  1.00 46.30    -0.327 OA
BRANCH   8   9
HETATM    9  C4  NAG B   1       2.389  28.210  33.343  1.00 41.63     0.180 C 
HETATM   10  C3  NAG B   1       1.865  26.783  33.732  1.00 14.31     0.209 C 
HETATM   11  C2  NAG B   1       1.915  26.647  35.240  1.00 29.05     0.198 C 
HETATM   12  O3  NAG B   1       0.534  26.671  33.209  1.00 28.14    -0.218 OA
HETATM   13  C1  NAG B   1       3.313  27.073  35.756  1.00 32.10     0.295 C 
HETATM   14  O1  NAG B   1       3.244  26.932  37.170  1.00 46.64    -0.188 OA
HETATM   15  O5  NAG B   1       3.402  28.534  35.528  1.00 32.95    -0.325 OA
HETATM   16  C5  NAG B   1       3.633  28.724  34.083  1.00 38.82     0.181 C 
BRANCH  11  17
HETATM   17  N2  NAG B   1       1.641  25.261  35.670  1.00 30.31    -0.232 NA
HETATM   18  C7  NAG B   1       0.493  24.875  36.280  1.00 19.61     0.252 C 
HETATM   19  O7  NAG B   1      -0.326  25.635  36.533  1.00 24.37    -0.271 OA
HETATM   20  C8  NAG B   1       0.427  23.418  36.563  1.00 14.43     0.100 C 
ENDBRANCH  11  17
BRANCH  16  21
HETATM   21  C6  NAG B   1       3.886  30.197  33.872  1.00 50.43     0.214 C 
HETATM   22  O6  NAG B   1       4.929  30.476  32.826  1.00 38.95    -0.218 OA
ENDBRANCH  16  21
ENDBRANCH   8   9
ENDBRANCH   1   8
BRANCH   2  23
HETATM   23  N2  NAG B   2       1.520  26.028  30.021  1.00 47.13    -0.232 NA
HETATM   24  C7  NAG B   2       0.349  26.647  29.730  1.00 36.27     0.252 C 
HETATM   25  O7  NAG B   2       0.314  27.726  29.337  1.00 77.29    -0.271 OA
HETATM   26  C8  NAG B   2      -0.869  25.812  29.956  1.00 25.48     0.100 C 
ENDBRANCH   2  23
BRANCH   6  27
HETATM   27  C6  NAG B   2       7.150  27.134  30.337  1.00 41.21     0.214 C 
HETATM   28  O6  NAG B   2       7.894  26.655  31.563  1.00 29.51    -0.218 OA
ENDBRANCH   6  27
BRANCH   5  29
HETATM   29  O4  NAG B   2       6.194  25.415  28.408  1.00 37.56    -0.327 OA
BRANCH  29  30
HETATM   30  C1  NAG B   3       6.726  25.172  27.077  1.00 31.25     0.262 C 
HETATM   31  C2  NAG B   3       8.181  24.721  26.977  1.00 50.86     0.195 C 
HETATM   32  C3  NAG B   3       8.614  24.724  25.546  1.00 27.28     0.212 C 
HETATM   33  O3  NAG B   3       9.828  23.954  25.441  1.00 49.98    -0.218 OA
HETATM   34  C4  NAG B   3       7.548  24.065  24.619  1.00 62.31     0.214 C 
HETATM   35  O4  NAG B   3       7.818  24.453  23.230  1.00 75.30    -0.218 OA
HETATM   36  C5  NAG B   3       6.091  24.477  24.913  1.00 37.66     0.184 C 
HETATM   37  O5  NAG B   3       5.821  24.352  26.312  1.00 55.96    -0.327 OA
BRANCH  31  38
HETATM   38  N2  NAG B   3       8.958  25.759  27.799  1.00 55.71    -0.232 NA
HETATM   39  C7  NAG B   3       9.854  25.424  28.746  1.00 64.76     0.252 C 
HETATM   40  O7  NAG B   3       9.881  24.369  29.208  1.00 66.12    -0.271 OA
HETATM   41  C8  NAG B   3      10.799  26.515  29.116  1.00 56.03     0.100 C 
ENDBRANCH  31  38
BRANCH  36  42
HETATM   42  C6  NAG B   3       5.102  23.554  24.216  1.00 49.19     0.214 C 
HETATM   43  O6  NAG B   3       4.284  22.798  25.161  1.00 68.92    -0.218 OA
ENDBRANCH  36  42
ENDBRANCH  29  30
ENDBRANCH   5  29
TORSDOF 10
ENDMDL
MODEL 7
REMARK VINA RESULT:    -6.122      2.177      9.425
REMARK INTER + INTRA:         -12.046
REMARK INTER:                  -9.985
REMARK INTRA:                  -2.061
REMARK UNBOUND:                -2.345
REMARK  10 active torsions:
REMARK  status: ('A' for Active; 'I' for Inactive)
REMARK    1  A    between atoms: C2_3  and  N2_4 
REMARK       I    between atoms: N2_4  and  C7_13 
REMARK    2  A    between atoms: C4_7  and  O4_8 
REMARK    3  A    between atoms: O4_8  and  C1_16 
REMARK    4  A    between atoms: C5_9  and  C6_11 
REMARK    5  A    between atoms: C2_17  and  N2_18 
REMARK       I    between atoms: N2_18  and  C7_27 
REMARK    6  A    between atoms: C4_21  and  O4_22 
REMARK    7  A    between atoms: O4_22  and  C1_30 
REMARK    8  A    between atoms: C5_23  and  C6_25 
REMARK    9  A    between atoms: C2_31  and  N2_32 
REMARK       I    between atoms: N2_32  and  C7_41 
REMARK   10  A    between atoms: C5_37  and  C6_39 
ROOT
HETATM    1  C1  NAG B   2       5.534  28.108  29.229  1.00 24.54     0.262 C 
HETATM    2  C2  NAG B   2       5.687  29.087  27.919  1.00 38.18     0.195 C 
HETATM    3  C3  NAG B   2       5.927  28.193  26.661  1.00 40.28     0.209 C 
HETATM    4  O3  NAG B   2       6.209  29.045  25.538  1.00 44.52    -0.218 OA
HETATM    5  C4  NAG B   2       7.145  27.290  27.075  1.00 31.56     0.180 C 
HETATM    6  C5  NAG B   2       6.820  26.370  28.350  1.00 25.00     0.180 C 
HETATM    7  O5  NAG B   2       6.758  27.321  29.485  1.00 56.77    -0.327 OA
ENDROOT
BRANCH   1   8
HETATM    8  O4  NAG B   1       5.281  28.944  30.419  1.00 46.30    -0.327 OA
BRANCH   8   9
HETATM    9  C4  NAG B   1       4.282  28.581  31.577  1.00 41.63     0.180 C 
HETATM   10  C3  NAG B   1       2.952  28.162  30.857  1.00 14.31     0.209 C 
HETATM   11  C2  NAG B   1       2.072  27.437  31.855  1.00 29.05     0.198 C 
HETATM   12  O3  NAG B   1       2.351  29.366  30.359  1.00 28.14    -0.218 OA
HETATM   13  C1  NAG B   1       2.893  26.332  32.566  1.00 32.10     0.295 C 
HETATM   14  O1  NAG B   1       1.988  25.736  33.489  1.00 46.64    -0.188 OA
HETATM   15  O5  NAG B   1       3.881  27.040  33.412  1.00 32.95    -0.325 OA
HETATM   16  C5  NAG B   1       4.931  27.544  32.506  1.00 38.82     0.181 C 
BRANCH  11  17
HETATM   17  N2  NAG B   1       0.898  26.826  31.201  1.00 30.31    -0.232 NA
HETATM   18  C7  NAG B   1       0.967  26.096  30.060  1.00 19.61     0.252 C 
HETATM   19  O7  NAG B   1       1.962  25.946  29.514  1.00 24.37    -0.271 OA
HETATM   20  C8  NAG B   1      -0.340  25.536  29.629  1.00 14.43     0.100 C 
ENDBRANCH  11  17
BRANCH  16  21
HETATM   21  C6  NAG B   1       6.019  28.123  33.377  1.00 50.43     0.214 C 
HETATM   22  O6  NAG B   1       7.400  27.904  32.826  1.00 38.95    -0.218 OA
ENDBRANCH  16  21
ENDBRANCH   8   9
ENDBRANCH   1   8
BRANCH   2  23
HETATM   23  N2  NAG B   2       4.490  29.905  27.693  1.00 47.13    -0.232 NA
HETATM   24  C7  NAG B   2       4.471  31.259  27.756  1.00 36.27     0.252 C 
HETATM   25  O7  NAG B   2       5.395  31.865  28.074  1.00 77.29    -0.271 OA
HETATM   26  C8  NAG B   2       3.168  31.881  27.375  1.00 25.48     0.100 C 
ENDBRANCH   2  23
BRANCH   6  27
HETATM   27  C6  NAG B   2       7.944  25.398  28.585  1.00 41.21     0.214 C 
HETATM   28  O6  NAG B   2       7.396  24.021  28.289  1.00 29.51    -0.218 OA
ENDBRANCH   6  27
BRANCH   5  29
HETATM   29  O4  NAG B   2       7.586  26.371  26.031  1.00 37.56    -0.327 OA
BRANCH  29  30
HETATM   30  C1  NAG B   3       7.027  25.724  24.856  1.00 31.25     0.262 C 
HETATM   31  C2  NAG B   3       7.973  25.459  23.688  1.00 50.86     0.195 C 
HETATM   32  C3  NAG B   3       7.193  24.989  22.501  1.00 27.28     0.212 C 
HETATM   33  O3  NAG B   3       8.113  24.398  21.563  1.00 49.98    -0.218 OA
HETATM   34  C4  NAG B   3       6.146  23.903  22.893  1.00 62.31     0.214 C 
HETATM   35  O4  NAG B   3       5.158  23.781  21.816  1.00 75.30    -0.218 OA
HETATM   36  C5  NAG B   3       5.353  24.204  24.182  1.00 37.66     0.184 C 
HETATM   37  O5  NAG B   3       6.250  24.570  25.234  1.00 55.96    -0.327 OA
BRANCH  31  38
HETATM   38  N2  NAG B   3       8.635  26.819  23.417  1.00 55.71    -0.232 NA
HETATM   39  C7  NAG B   3       9.969  26.995  23.404  1.00 64.76     0.252 C 
HETATM   40  O7  NAG B   3      10.687  26.230  23.879  1.00 66.12    -0.271 OA
HETATM   41  C8  NAG B   3      10.420  28.237  22.715  1.00 56.03     0.100 C 
ENDBRANCH  31  38
BRANCH  36  42
HETATM   42  C6  NAG B   3       4.615  22.970  24.680  1.00 49.19     0.214 C 
HETATM   43  O6  NAG B   3       3.652  23.283  25.733  1.00 68.92    -0.218 OA
ENDBRANCH  36  42
ENDBRANCH  29  30
ENDBRANCH   5  29
TORSDOF 10
ENDMDL
MODEL 8
REMARK VINA RESULT:    -6.113      2.051      9.596
REMARK INTER + INTRA:         -12.031
REMARK INTER:                 -10.852
REMARK INTRA:                  -1.179
REMARK UNBOUND:                -2.345
REMARK  10 active torsions:
REMARK  status: ('A' for Active; 'I' for Inactive)
REMARK    1  A    between atoms: C2_3  and  N2_4 
REMARK       I    between atoms: N2_4  and  C7_13 
REMARK    2  A    between atoms: C4_7  and  O4_8 
REMARK    3  A    between atoms: O4_8  and  C1_16 
REMARK    4  A    between atoms: C5_9  and  C6_11 
REMARK    5  A    between atoms: C2_17  and  N2_18 
REMARK       I    between atoms: N2_18  and  C7_27 
REMARK    6  A    between atoms: C4_21  and  O4_22 
REMARK    7  A    between atoms: O4_22  and  C1_30 
REMARK    8  A    between atoms: C5_23  and  C6_25 
REMARK    9  A    between atoms: C2_31  and  N2_32 
REMARK       I    between atoms: N2_32  and  C7_41 
REMARK   10  A    between atoms: C5_37  and  C6_39 
ROOT
HETATM    1  C1  NAG B   2       6.882  24.358  26.698  1.00 24.54     0.262 C 
HETATM    2  C2  NAG B   2       6.109  24.978  25.388  1.00 38.18     0.195 C 
HETATM    3  C3  NAG B   2       6.939  24.627  24.113  1.00 40.28     0.209 C 
HETATM    4  O3  NAG B   2       6.349  25.291  22.983  1.00 44.52    -0.218 OA
HETATM    5  C4  NAG B   2       8.382  25.149  24.455  1.00 31.56     0.180 C 
HETATM    6  C5  NAG B   2       9.009  24.417  25.739  1.00 25.00     0.180 C 
HETATM    7  O5  NAG B   2       8.226  24.944  26.883  1.00 56.77    -0.327 OA
ENDROOT
BRANCH   1   8
HETATM    8  O4  NAG B   1       6.090  24.664  27.906  1.00 46.30    -0.327 OA
BRANCH   8   9
HETATM    9  C4  NAG B   1       5.316  26.009  28.156  1.00 41.63     0.180 C 
HETATM   10  C3  NAG B   1       3.961  25.586  28.825  1.00 14.31     0.209 C 
HETATM   11  C2  NAG B   1       3.327  26.814  29.446  1.00 29.05     0.198 C 
HETATM   12  O3  NAG B   1       3.151  25.005  27.793  1.00 28.14    -0.218 OA
HETATM   13  C1  NAG B   1       4.370  27.552  30.322  1.00 32.10     0.295 C 
HETATM   14  O1  NAG B   1       3.685  28.691  30.832  1.00 46.64    -0.188 OA
HETATM   15  O5  NAG B   1       5.371  28.107  29.382  1.00 32.95    -0.325 OA
HETATM   16  C5  NAG B   1       6.212  26.976  28.943  1.00 38.82     0.181 C 
BRANCH  11  17
HETATM   17  N2  NAG B   1       2.158  26.461  30.276  1.00 30.31    -0.232 NA
HETATM   18  C7  NAG B   1       0.926  27.003  30.111  1.00 19.61     0.252 C 
HETATM   19  O7  NAG B   1       0.736  27.810  29.321  1.00 24.37    -0.271 OA
HETATM   20  C8  NAG B   1      -0.100  26.444  31.029  1.00 14.43     0.100 C 
ENDBRANCH  11  17
BRANCH  16  21
HETATM   21  C6  NAG B   1       7.331  27.560  28.115  1.00 50.43     0.214 C 
HETATM   22  O6  NAG B   1       7.481  29.046  28.283  1.00 38.95    -0.218 OA
ENDBRANCH  16  21
ENDBRANCH   8   9
ENDBRANCH   1   8
BRANCH   2  23
HETATM   23  N2  NAG B   2       4.755  24.434  25.233  1.00 47.13    -0.232 NA
HETATM   24  C7  NAG B   2       4.485  23.168  24.831  1.00 36.27     0.252 C 
HETATM   25  O7  NAG B   2       5.316  22.445  24.503  1.00 77.29    -0.271 OA
HETATM   26  C8  NAG B   2       3.037  22.802  24.859  1.00 25.48     0.100 C 
ENDBRANCH   2  23
BRANCH   6  27
HETATM   27  C6  NAG B   2      10.450  24.816  25.906  1.00 41.21     0.214 C 
HETATM   28  O6  NAG B   2      10.989  24.016  27.070  1.00 29.51    -0.218 OA
ENDBRANCH   6  27
BRANCH   5  29
HETATM   29  O4  NAG B   2       9.352  24.959  23.383  1.00 37.56    -0.327 OA
BRANCH  29  30
HETATM   30  C1  NAG B   3       9.567  25.430  22.024  1.00 31.25     0.262 C 
HETATM   31  C2  NAG B   3      10.850  26.210  21.750  1.00 50.86     0.195 C 
HETATM   32  C3  NAG B   3      10.804  26.790  20.372  1.00 27.28     0.212 C 
HETATM   33  O3  NAG B   3      12.140  27.185  20.005  1.00 49.98    -0.218 OA
HETATM   34  C4  NAG B   3      10.308  25.749  19.324  1.00 62.31     0.214 C 
HETATM   35  O4  NAG B   3       9.894  26.456  18.106  1.00 75.30    -0.218 OA
HETATM   36  C5  NAG B   3       9.096  24.906  19.772  1.00 37.66     0.184 C 
HETATM   37  O5  NAG B   3       9.330  24.369  21.078  1.00 55.96    -0.327 OA
BRANCH  31  38
HETATM   38  N2  NAG B   3      10.862  27.312  22.819  1.00 55.71    -0.232 NA
HETATM   39  C7  NAG B   3      11.892  27.502  23.665  1.00 64.76     0.252 C 
HETATM   40  O7  NAG B   3      12.687  26.688  23.845  1.00 66.12    -0.271 OA
HETATM   41  C8  NAG B   3      11.918  28.843  24.314  1.00 56.03     0.100 C 
ENDBRANCH  31  38
BRANCH  36  42
HETATM   42  C6  NAG B   3       8.889  23.703  18.863  1.00 49.19     0.214 C 
HETATM   43  O6  NAG B   3      10.149  23.165  18.354  1.00 68.92    -0.218 OA
ENDBRANCH  36  42
ENDBRANCH  29  30
ENDBRANCH   5  29
TORSDOF 10
ENDMDL
MODEL 9
REMARK VINA RESULT:    -6.067      3.002      9.856
REMARK INTER + INTRA:         -11.959
REMARK INTER:                  -9.473
REMARK INTRA:                  -2.486
REMARK UNBOUND:                -2.345
REMARK  10 active torsions:
REMARK  status: ('A' for Active; 'I' for Inactive)
REMARK    1  A    between atoms: C2_3  and  N2_4 
REMARK       I    between atoms: N2_4  and  C7_13 
REMARK    2  A    between atoms: C4_7  and  O4_8 
REMARK    3  A    between atoms: O4_8  and  C1_16 
REMARK    4  A    between atoms: C5_9  and  C6_11 
REMARK    5  A    between atoms: C2_17  and  N2_18 
REMARK       I    between atoms: N2_18  and  C7_27 
REMARK    6  A    between atoms: C4_21  and  O4_22 
REMARK    7  A    between atoms: O4_22  and  C1_30 
REMARK    8  A    between atoms: C5_23  and  C6_25 
REMARK    9  A    between atoms: C2_31  and  N2_32 
REMARK       I    between atoms: N2_32  and  C7_41 
REMARK   10  A    between atoms: C5_37  and  C6_39 
ROOT
HETATM    1  C1  NAG B   2       3.730  27.770  29.701  1.00 24.54     0.262 C 
HETATM    2  C2  NAG B   2       3.242  26.201  29.722  1.00 38.18     0.195 C 
HETATM    3  C3  NAG B   2       4.308  25.343  28.969  1.00 40.28     0.209 C 
HETATM    4  O3  NAG B   2       3.817  23.997  28.854  1.00 44.52    -0.218 OA
HETATM    5  C4  NAG B   2       4.457  26.069  27.583  1.00 31.56     0.180 C 
HETATM    6  C5  NAG B   2       4.975  27.581  27.736  1.00 25.00     0.180 C 
HETATM    7  O5  NAG B   2       3.826  28.307  28.328  1.00 56.77    -0.327 OA
ENDROOT
BRANCH   1   8
HETATM    8  O4  NAG B   1       2.740  28.584  30.433  1.00 46.30    -0.327 OA
BRANCH   8   9
HETATM    9  C4  NAG B   1       3.083  29.590  31.591  1.00 41.63     0.180 C 
HETATM   10  C3  NAG B   1       3.038  28.736  32.906  1.00 14.31     0.209 C 
HETATM   11  C2  NAG B   1       3.723  29.516  34.010  1.00 29.05     0.198 C 
HETATM   12  O3  NAG B   1       1.655  28.477  33.186  1.00 28.14    -0.218 OA
HETATM   13  C1  NAG B   1       5.104  30.015  33.515  1.00 32.10     0.295 C 
HETATM   14  O1  NAG B   1       5.645  30.747  34.609  1.00 46.64    -0.188 OA
HETATM   15  O5  NAG B   1       4.821  31.037  32.482  1.00 32.95    -0.325 OA
HETATM   16  C5  NAG B   1       4.403  30.308  31.269  1.00 38.82     0.181 C 
BRANCH  11  17
HETATM   17  N2  NAG B   1       3.909  28.692  35.221  1.00 30.31    -0.232 NA
HETATM   18  C7  NAG B   1       3.295  28.944  36.404  1.00 19.61     0.252 C 
HETATM   19  O7  NAG B   1       2.613  29.854  36.534  1.00 24.37    -0.271 OA
HETATM   20  C8  NAG B   1       3.596  27.940  37.459  1.00 14.43     0.100 C 
ENDBRANCH  11  17
BRANCH  16  21
HETATM   21  C6  NAG B   1       4.271  31.333  30.168  1.00 50.43     0.214 C 
HETATM   22  O6  NAG B   1       3.415  32.508  30.551  1.00 38.95    -0.218 OA
ENDBRANCH  16  21
ENDBRANCH   8   9
ENDBRANCH   1   8
BRANCH   2  23
HETATM   23  N2  NAG B   2       3.098  25.682  31.086  1.00 47.13    -0.232 NA
HETATM   24  C7  NAG B   2       1.915  25.327  31.645  1.00 36.27     0.252 C 
HETATM   25  O7  NAG B   2       0.915  25.487  31.101  1.00 77.29    -0.271 OA
HETATM   26  C8  NAG B   2       2.027  24.715  33.002  1.00 25.48     0.100 C 
ENDBRANCH   2  23
BRANCH   6  27
HETATM   27  C6  NAG B   2       5.277  28.162  26.382  1.00 41.21     0.214 C 
HETATM   28  O6  NAG B   2       6.741  28.536  26.387  1.00 29.51    -0.218 OA
ENDBRANCH   6  27
BRANCH   5  29
HETATM   29  O4  NAG B   2       5.394  25.424  26.671  1.00 37.56    -0.327 OA
BRANCH  29  30
HETATM   30  C1  NAG B   3       6.779  24.981  26.682  1.00 31.25     0.262 C 
HETATM   31  C2  NAG B   3       7.580  25.162  25.396  1.00 50.86     0.195 C 
HETATM   32  C3  NAG B   3       8.899  24.467  25.520  1.00 27.28     0.212 C 
HETATM   33  O3  NAG B   3       9.766  24.957  24.478  1.00 49.98    -0.218 OA
HETATM   34  C4  NAG B   3       9.581  24.764  26.889  1.00 62.31     0.214 C 
HETATM   35  O4  NAG B   3      10.631  23.767  27.127  1.00 75.30    -0.218 OA
HETATM   36  C5  NAG B   3       8.638  24.704  28.108  1.00 37.66     0.184 C 
HETATM   37  O5  NAG B   3       7.460  25.474  27.853  1.00 55.96    -0.327 OA
BRANCH  31  38
HETATM   38  N2  NAG B   3       6.709  24.515  24.309  1.00 55.71    -0.232 NA
HETATM   39  C7  NAG B   3       6.114  25.221  23.330  1.00 64.76     0.252 C 
HETATM   40  O7  NAG B   3       5.969  26.361  23.406  1.00 66.12    -0.271 OA
HETATM   41  C8  NAG B   3       5.688  24.409  22.155  1.00 56.03     0.100 C 
ENDBRANCH  31  38
BRANCH  36  42
HETATM   42  C6  NAG B   3       9.281  25.330  29.339  1.00 49.19     0.214 C 
HETATM   43  O6  NAG B   3       9.731  24.329  30.302  1.00 68.92    -0.218 OA
ENDBRANCH  36  42
ENDBRANCH  29  30
ENDBRANCH   5  29
TORSDOF 10
ENDMDL
