MODEL 1
REMARK VINA RESULT:    -6.861      0.000      0.000
REMARK INTER + INTRA:         -13.362
REMARK INTER:                 -10.872
REMARK INTRA:                  -2.490
REMARK UNBOUND:                -2.490
REMARK  10 active torsions:
REMARK  status: ('A' for Active; 'I' for Inactive)
REMARK    1  A    between atoms: C2_3  and  N2_4 
REMARK       I    between atoms: N2_4  and  C7_13 
REMARK    2  A    between atoms: C4_7  and  O4_8 
REMARK    3  A    between atoms: O4_8  and  C1_16 
REMARK    4  A    between atoms: C5_9  and  C6_11 
REMARK    5  A    between atoms: C2_17  and  N2_18 
REMARK       I    between atoms: N2_18  and  C7_27 
REMARK    6  A    between atoms: C4_21  and  O4_22 
REMARK    7  A    between atoms: O4_22  and  C1_30 
REMARK    8  A    between atoms: C5_23  and  C6_25 
REMARK    9  A    between atoms: C2_31  and  N2_32 
REMARK       I    between atoms: N2_32  and  C7_41 
REMARK   10  A    between atoms: C5_37  and  C6_39 
ROOT
HETATM    1  C1  NAG B   2       6.831  24.946  25.497  1.00 24.54     0.262 C 
HETATM    2  C2  NAG B   2       5.556  24.151  26.159  1.00 38.18     0.195 C 
HETATM    3  C3  NAG B   2       5.047  24.971  27.387  1.00 40.28     0.209 C 
HETATM    4  O3  NAG B   2       4.030  24.210  28.059  1.00 44.52    -0.218 OA
HETATM    5  C4  NAG B   2       6.340  25.180  28.256  1.00 31.56     0.180 C 
HETATM    6  C5  NAG B   2       7.476  26.005  27.475  1.00 25.00     0.180 C 
HETATM    7  O5  NAG B   2       7.965  25.066  26.437  1.00 56.77    -0.327 OA
ENDROOT
BRANCH   1   8
HETATM    8  O4  NAG B   1       7.303  24.190  24.320  1.00 46.30    -0.327 OA
BRANCH   8   9
HETATM    9  C4  NAG B   1       7.538  24.804  22.892  1.00 41.63     0.180 C 
HETATM   10  C3  NAG B   1       9.081  25.077  22.811  1.00 14.31     0.209 C 
HETATM   11  C2  NAG B   1       9.454  25.302  21.360  1.00 29.05     0.198 C 
HETATM   12  O3  NAG B   1       9.345  26.221  23.635  1.00 28.14    -0.218 OA
HETATM   13  C1  NAG B   1       8.872  24.160  20.489  1.00 32.10     0.295 C 
HETATM   14  O1  NAG B   1       9.255  24.479  19.156  1.00 46.64    -0.188 OA
HETATM   15  O5  NAG B   1       7.402  24.342  20.510  1.00 32.95    -0.325 OA
HETATM   16  C5  NAG B   1       6.936  23.872  21.830  1.00 38.82     0.181 C 
BRANCH  11  17
HETATM   17  N2  NAG B   1      10.918  25.354  21.176  1.00 30.31    -0.232 NA
HETATM   18  C7  NAG B   1      11.600  26.488  20.882  1.00 19.61     0.252 C 
HETATM   19  O7  NAG B   1      11.054  27.481  20.719  1.00 24.37    -0.271 OA
HETATM   20  C8  NAG B   1      13.072  26.298  20.805  1.00 14.43     0.100 C 
ENDBRANCH  11  17
BRANCH  16  21
HETATM   21  C6  NAG B   1       5.427  23.903  21.796  1.00 50.43     0.214 C 
HETATM   22  O6  NAG B   1       4.853  25.249  22.139  1.00 38.95    -0.218 OA
ENDBRANCH  16  21
ENDBRANCH   8   9
ENDBRANCH   1   8
BRANCH   2  23
HETATM   23  N2  NAG B   2       4.449  23.987  25.211  1.00 47.13    -0.232 NA
HETATM   24  C7  NAG B   2       3.721  22.851  25.079  1.00 36.27     0.252 C 
HETATM   25  O7  NAG B   2       3.980  21.893  25.660  1.00 77.29    -0.271 OA
HETATM   26  C8  NAG B   2       2.570  22.956  24.133  1.00 25.48     0.100 C 
ENDBRANCH   2  23
BRANCH   6  27
HETATM   27  C6  NAG B   2       8.606  26.336  28.409  1.00 41.21     0.214 C 
HETATM   28  O6  NAG B   2       9.741  26.849  27.553  1.00 29.51    -0.218 OA
ENDBRANCH   6  27
BRANCH   5  29
HETATM   29  O4  NAG B   2       6.111  25.909  29.497  1.00 37.56    -0.327 OA
BRANCH  29  30
HETATM   30  C1  NAG B   3       5.012  26.590  30.163  1.00 31.25     0.262 C 
HETATM   31  C2  NAG B   3       4.190  27.570  29.329  1.00 50.86     0.195 C 
HETATM   32  C3  NAG B   3       3.252  28.325  30.216  1.00 27.28     0.212 C 
HETATM   33  O3  NAG B   3       2.251  28.948  29.387  1.00 49.98    -0.218 OA
HETATM   34  C4  NAG B   3       2.523  27.383  31.220  1.00 62.31     0.214 C 
HETATM   35  O4  NAG B   3       1.953  28.189  32.305  1.00 75.30    -0.218 OA
HETATM   36  C5  NAG B   3       3.427  26.327  31.890  1.00 37.66     0.184 C 
HETATM   37  O5  NAG B   3       4.205  25.650  30.899  1.00 55.96    -0.327 OA
BRANCH  31  38
HETATM   38  N2  NAG B   3       5.234  28.502  28.698  1.00 55.71    -0.232 NA
HETATM   39  C7  NAG B   3       5.158  28.934  27.425  1.00 64.76     0.252 C 
HETATM   40  O7  NAG B   3       4.490  28.410  26.646  1.00 66.12    -0.271 OA
HETATM   41  C8  NAG B   3       5.986  30.137  27.131  1.00 56.03     0.100 C 
ENDBRANCH  31  38
BRANCH  36  42
HETATM   42  C6  NAG B   3       2.603  25.246  32.577  1.00 49.19     0.214 C 
HETATM   43  O6  NAG B   3       1.372  24.940  31.854  1.00 68.92    -0.218 OA
ENDBRANCH  36  42
ENDBRANCH  29  30
ENDBRANCH   5  29
TORSDOF 10
ENDMDL
MODEL 2
REMARK VINA RESULT:    -6.463      2.266      9.134
REMARK INTER + INTRA:         -12.732
REMARK INTER:                 -10.161
REMARK INTRA:                  -2.571
REMARK UNBOUND:                -2.490
REMARK  10 active torsions:
REMARK  status: ('A' for Active; 'I' for Inactive)
REMARK    1  A    between atoms: C2_3  and  N2_4 
REMARK       I    between atoms: N2_4  and  C7_13 
REMARK    2  A    between atoms: C4_7  and  O4_8 
REMARK    3  A    between atoms: O4_8  and  C1_16 
REMARK    4  A    between atoms: C5_9  and  C6_11 
REMARK    5  A    between atoms: C2_17  and  N2_18 
REMARK       I    between atoms: N2_18  and  C7_27 
REMARK    6  A    between atoms: C4_21  and  O4_22 
REMARK    7  A    between atoms: O4_22  and  C1_30 
REMARK    8  A    between atoms: C5_23  and  C6_25 
REMARK    9  A    between atoms: C2_31  and  N2_32 
REMARK       I    between atoms: N2_32  and  C7_41 
REMARK   10  A    between atoms: C5_37  and  C6_39 
ROOT
HETATM    1  C1  NAG B   2       7.038  25.011  26.791  1.00 24.54     0.262 C 
HETATM    2  C2  NAG B   2       8.614  24.657  27.087  1.00 38.18     0.195 C 
HETATM    3  C3  NAG B   2       9.473  25.202  25.902  1.00 40.28     0.209 C 
HETATM    4  O3  NAG B   2      10.831  24.767  26.080  1.00 44.52    -0.218 OA
HETATM    5  C4  NAG B   2       8.786  24.583  24.630  1.00 31.56     0.180 C 
HETATM    6  C5  NAG B   2       7.260  25.057  24.468  1.00 25.00     0.180 C 
HETATM    7  O5  NAG B   2       6.540  24.361  25.561  1.00 56.77    -0.327 OA
ENDROOT
BRANCH   1   8
HETATM    8  O4  NAG B   1       6.222  24.522  27.920  1.00 46.30    -0.327 OA
BRANCH   8   9
HETATM    9  C4  NAG B   1       5.075  25.337  28.620  1.00 41.63     0.180 C 
HETATM   10  C3  NAG B   1       5.754  26.665  29.109  1.00 14.31     0.209 C 
HETATM   11  C2  NAG B   1       4.667  27.665  29.445  1.00 29.05     0.198 C 
HETATM   12  O3  NAG B   1       6.564  26.325  30.243  1.00 28.14    -0.218 OA
HETATM   13  C1  NAG B   1       3.660  27.754  28.271  1.00 32.10     0.295 C 
HETATM   14  O1  NAG B   1       2.678  28.693  28.696  1.00 46.64    -0.188 OA
HETATM   15  O5  NAG B   1       2.950  26.455  28.244  1.00 32.95    -0.325 OA
HETATM   16  C5  NAG B   1       3.885  25.473  27.659  1.00 38.82     0.181 C 
BRANCH  11  17
HETATM   17  N2  NAG B   1       5.225  29.006  29.709  1.00 30.31    -0.232 NA
HETATM   18  C7  NAG B   1       5.273  29.574  30.939  1.00 19.61     0.252 C 
HETATM   19  O7  NAG B   1       4.836  29.040  31.853  1.00 24.37    -0.271 OA
HETATM   20  C8  NAG B   1       5.935  30.905  30.959  1.00 14.43     0.100 C 
ENDBRANCH  11  17
BRANCH  16  21
HETATM   21  C6  NAG B   1       3.113  24.189  27.480  1.00 50.43     0.214 C 
HETATM   22  O6  NAG B   1       3.366  23.524  26.156  1.00 38.95    -0.218 OA
ENDBRANCH  16  21
ENDBRANCH   8   9
ENDBRANCH   1   8
BRANCH   2  23
HETATM   23  N2  NAG B   2       9.096  25.261  28.333  1.00 47.13    -0.232 NA
HETATM   24  C7  NAG B   2       9.633  24.559  29.362  1.00 36.27     0.252 C 
HETATM   25  O7  NAG B   2       9.674  23.410  29.356  1.00 77.29    -0.271 OA
HETATM   26  C8  NAG B   2      10.160  25.398  30.479  1.00 25.48     0.100 C 
ENDBRANCH   2  23
BRANCH   6  27
HETATM   27  C6  NAG B   2       6.714  24.591  23.147  1.00 41.21     0.214 C 
HETATM   28  O6  NAG B   2       5.336  24.033  23.419  1.00 29.51    -0.218 OA
ENDBRANCH   6  27
BRANCH   5  29
HETATM   29  O4  NAG B   2       9.439  24.930  23.374  1.00 37.56    -0.327 OA
BRANCH  29  30
HETATM   30  C1  NAG B   3      10.112  26.077  22.787  1.00 31.25     0.262 C 
HETATM   31  C2  NAG B   3       9.904  26.321  21.294  1.00 50.86     0.195 C 
HETATM   32  C3  NAG B   3      10.826  27.401  20.825  1.00 27.28     0.212 C 
HETATM   33  O3  NAG B   3      10.359  27.866  19.543  1.00 49.98    -0.218 OA
HETATM   34  C4  NAG B   3      10.833  28.617  21.800  1.00 62.31     0.214 C 
HETATM   35  O4  NAG B   3      12.019  29.438  21.531  1.00 75.30    -0.218 OA
HETATM   36  C5  NAG B   3      10.889  28.246  23.297  1.00 37.66     0.184 C 
HETATM   37  O5  NAG B   3       9.901  27.254  23.591  1.00 55.96    -0.327 OA
BRANCH  31  38
HETATM   38  N2  NAG B   3      10.242  24.975  20.638  1.00 55.71    -0.232 NA
HETATM   39  C7  NAG B   3       9.358  24.275  19.902  1.00 64.76     0.252 C 
HETATM   40  O7  NAG B   3       8.226  24.478  19.959  1.00 66.12    -0.271 OA
HETATM   41  C8  NAG B   3       9.972  23.250  19.011  1.00 56.03     0.100 C 
ENDBRANCH  31  38
BRANCH  36  42
HETATM   42  C6  NAG B   3      10.551  29.440  24.178  1.00 49.19     0.214 C 
HETATM   43  O6  NAG B   3       9.304  30.090  23.782  1.00 68.92    -0.218 OA
ENDBRANCH  36  42
ENDBRANCH  29  30
ENDBRANCH   5  29
TORSDOF 10
ENDMDL
MODEL 3
REMARK VINA RESULT:    -6.422      2.257      9.952
REMARK INTER + INTRA:         -12.666
REMARK INTER:                 -10.215
REMARK INTRA:                  -2.452
REMARK UNBOUND:                -2.490
REMARK  10 active torsions:
REMARK  status: ('A' for Active; 'I' for Inactive)
REMARK    1  A    between atoms: C2_3  and  N2_4 
REMARK       I    between atoms: N2_4  and  C7_13 
REMARK    2  A    between atoms: C4_7  and  O4_8 
REMARK    3  A    between atoms: O4_8  and  C1_16 
REMARK    4  A    between atoms: C5_9  and  C6_11 
REMARK    5  A    between atoms: C2_17  and  N2_18 
REMARK       I    between atoms: N2_18  and  C7_27 
REMARK    6  A    between atoms: C4_21  and  O4_22 
REMARK    7  A    between atoms: O4_22  and  C1_30 
REMARK    8  A    between atoms: C5_23  and  C6_25 
REMARK    9  A    between atoms: C2_31  and  N2_32 
REMARK       I    between atoms: N2_32  and  C7_41 
REMARK   10  A    between atoms: C5_37  and  C6_39 
ROOT
HETATM    1  C1  NAG B   2       7.738  24.886  25.499  1.00 24.54     0.262 C 
HETATM    2  C2  NAG B   2       9.355  25.124  25.668  1.00 38.18     0.195 C 
HETATM    3  C3  NAG B   2       9.855  25.984  24.464  1.00 40.28     0.209 C 
HETATM    4  O3  NAG B   2      11.288  26.071  24.525  1.00 44.52    -0.218 OA
HETATM    5  C4  NAG B   2       9.335  25.198  23.205  1.00 31.56     0.180 C 
HETATM    6  C5  NAG B   2       7.734  25.084  23.173  1.00 25.00     0.180 C 
HETATM    7  O5  NAG B   2       7.409  24.139  24.268  1.00 56.77    -0.327 OA
ENDROOT
BRANCH   1   8
HETATM    8  O4  NAG B   1       7.253  24.096  26.647  1.00 46.30    -0.327 OA
BRANCH   8   9
HETATM    9  C4  NAG B   1       6.008  24.467  27.532  1.00 41.63     0.180 C 
HETATM   10  C3  NAG B   1       6.431  25.758  28.317  1.00 14.31     0.209 C 
HETATM   11  C2  NAG B   1       5.186  26.402  28.892  1.00 29.05     0.198 C 
HETATM   12  O3  NAG B   1       7.358  25.343  29.330  1.00 28.14    -0.218 OA
HETATM   13  C1  NAG B   1       4.115  26.546  27.781  1.00 32.10     0.295 C 
HETATM   14  O1  NAG B   1       2.990  27.133  28.426  1.00 46.64    -0.188 OA
HETATM   15  O5  NAG B   1       3.682  25.169  27.452  1.00 32.95    -0.325 OA
HETATM   16  C5  NAG B   1       4.760  24.569  26.641  1.00 38.82     0.181 C 
BRANCH  11  17
HETATM   17  N2  NAG B   1       5.476  27.732  29.462  1.00 30.31    -0.232 NA
HETATM   18  C7  NAG B   1       5.534  27.984  30.794  1.00 19.61     0.252 C 
HETATM   19  O7  NAG B   1       5.318  27.162  31.560  1.00 24.37    -0.271 OA
HETATM   20  C8  NAG B   1       5.900  29.387  31.121  1.00 14.43     0.100 C 
ENDBRANCH  11  17
BRANCH  16  21
HETATM   21  C6  NAG B   1       4.255  23.228  26.168  1.00 50.43     0.214 C 
HETATM   22  O6  NAG B   1       4.404  23.027  24.685  1.00 38.95    -0.218 OA
ENDBRANCH  16  21
ENDBRANCH   8   9
ENDBRANCH   1   8
BRANCH   2  23
HETATM   23  N2  NAG B   2       9.687  25.823  26.914  1.00 47.13    -0.232 NA
HETATM   24  C7  NAG B   2      10.436  25.288  27.910  1.00 36.27     0.252 C 
HETATM   25  O7  NAG B   2      10.803  24.199  27.876  1.00 77.29    -0.271 OA
HETATM   26  C8  NAG B   2      10.741  26.227  29.031  1.00 25.48     0.100 C 
ENDBRANCH   2  23
BRANCH   6  27
HETATM   27  C6  NAG B   2       7.285  24.493  21.865  1.00 41.21     0.214 C 
HETATM   28  O6  NAG B   2       5.774  24.487  21.887  1.00 29.51    -0.218 OA
ENDBRANCH   6  27
BRANCH   5  29
HETATM   29  O4  NAG B   2       9.711  25.799  21.931  1.00 37.56    -0.327 OA
BRANCH  29  30
HETATM   30  C1  NAG B   3      10.921  26.019  21.156  1.00 31.25     0.262 C 
HETATM   31  C2  NAG B   3      10.776  26.079  19.637  1.00 50.86     0.195 C 
HETATM   32  C3  NAG B   3      12.129  26.098  19.001  1.00 27.28     0.212 C 
HETATM   33  O3  NAG B   3      11.977  26.528  17.633  1.00 49.98    -0.218 OA
HETATM   34  C4  NAG B   3      13.088  27.098  19.713  1.00 62.31     0.214 C 
HETATM   35  O4  NAG B   3      14.471  26.786  19.335  1.00 75.30    -0.218 OA
HETATM   36  C5  NAG B   3      13.037  27.057  21.254  1.00 37.66     0.184 C 
HETATM   37  O5  NAG B   3      11.679  27.116  21.700  1.00 55.96    -0.327 OA
BRANCH  31  38
HETATM   38  N2  NAG B   3      10.007  24.800  19.277  1.00 55.71    -0.232 NA
HETATM   39  C7  NAG B   3       9.071  24.754  18.310  1.00 64.76     0.252 C 
HETATM   40  O7  NAG B   3       8.576  25.710  17.899  1.00 66.12    -0.271 OA
HETATM   41  C8  NAG B   3       8.758  23.383  17.818  1.00 56.03     0.100 C 
ENDBRANCH  31  38
BRANCH  36  42
HETATM   42  C6  NAG B   3      13.726  28.269  21.865  1.00 49.19     0.214 C 
HETATM   43  O6  NAG B   3      13.196  28.606  23.184  1.00 68.92    -0.218 OA
ENDBRANCH  36  42
ENDBRANCH  29  30
ENDBRANCH   5  29
TORSDOF 10
ENDMDL
MODEL 4
REMARK VINA RESULT:    -6.411      2.640      9.080
REMARK INTER + INTRA:         -12.650
REMARK INTER:                 -10.476
REMARK INTRA:                  -2.174
REMARK UNBOUND:                -2.490
REMARK  10 active torsions:
REMARK  status: ('A' for Active; 'I' for Inactive)
REMARK    1  A    between atoms: C2_3  and  N2_4 
REMARK       I    between atoms: N2_4  and  C7_13 
REMARK    2  A    between atoms: C4_7  and  O4_8 
REMARK    3  A    between atoms: O4_8  and  C1_16 
REMARK    4  A    between atoms: C5_9  and  C6_11 
REMARK    5  A    between atoms: C2_17  and  N2_18 
REMARK       I    between atoms: N2_18  and  C7_27 
REMARK    6  A    between atoms: C4_21  and  O4_22 
REMARK    7  A    between atoms: O4_22  and  C1_30 
REMARK    8  A    between atoms: C5_23  and  C6_25 
REMARK    9  A    between atoms: C2_31  and  N2_32 
REMARK       I    between atoms: N2_32  and  C7_41 
REMARK   10  A    between atoms: C5_37  and  C6_39 
ROOT
HETATM    1  C1  NAG B   2       5.246  26.267  30.083  1.00 24.54     0.262 C 
HETATM    2  C2  NAG B   2       3.947  25.964  29.124  1.00 38.18     0.195 C 
HETATM    3  C3  NAG B   2       4.283  24.743  28.211  1.00 40.28     0.209 C 
HETATM    4  O3  NAG B   2       3.212  24.565  27.268  1.00 44.52    -0.218 OA
HETATM    5  C4  NAG B   2       5.643  25.148  27.534  1.00 31.56     0.180 C 
HETATM    6  C5  NAG B   2       6.817  25.372  28.607  1.00 25.00     0.180 C 
HETATM    7  O5  NAG B   2       6.447  26.628  29.302  1.00 56.77    -0.327 OA
ENDROOT
BRANCH   1   8
HETATM    8  O4  NAG B   1       4.927  27.404  30.968  1.00 46.30    -0.327 OA
BRANCH   8   9
HETATM    9  C4  NAG B   1       5.441  28.875  30.761  1.00 41.63     0.180 C 
HETATM   10  C3  NAG B   1       4.275  29.619  30.021  1.00 14.31     0.209 C 
HETATM   11  C2  NAG B   1       4.514  31.112  30.122  1.00 29.05     0.198 C 
HETATM   12  O3  NAG B   1       4.275  29.148  28.666  1.00 28.14    -0.218 OA
HETATM   13  C1  NAG B   1       4.799  31.494  31.596  1.00 32.10     0.295 C 
HETATM   14  O1  NAG B   1       5.032  32.898  31.575  1.00 46.64    -0.188 OA
HETATM   15  O5  NAG B   1       6.116  30.901  31.923  1.00 32.95    -0.325 OA
HETATM   16  C5  NAG B   1       5.893  29.453  32.111  1.00 38.82     0.181 C 
BRANCH  11  17
HETATM   17  N2  NAG B   1       3.353  31.882  29.636  1.00 30.31    -0.232 NA
HETATM   18  C7  NAG B   1       3.301  32.478  28.419  1.00 19.61     0.252 C 
HETATM   19  O7  NAG B   1       4.195  32.443  27.705  1.00 24.37    -0.271 OA
HETATM   20  C8  NAG B   1       2.003  33.146  28.135  1.00 14.43     0.100 C 
ENDBRANCH  11  17
BRANCH  16  21
HETATM   21  C6  NAG B   1       7.196  28.872  32.602  1.00 50.43     0.214 C 
HETATM   22  O6  NAG B   1       8.050  29.866  33.339  1.00 38.95    -0.218 OA
ENDBRANCH  16  21
ENDBRANCH   8   9
ENDBRANCH   1   8
BRANCH   2  23
HETATM   23  N2  NAG B   2       2.743  25.654  29.901  1.00 47.13    -0.232 NA
HETATM   24  C7  NAG B   2       1.616  26.408  29.892  1.00 36.27     0.252 C 
HETATM   25  O7  NAG B   2       1.558  27.405  29.323  1.00 77.29    -0.271 OA
HETATM   26  C8  NAG B   2       0.477  25.834  30.668  1.00 25.48     0.100 C 
ENDBRANCH   2  23
BRANCH   6  27
HETATM   27  C6  NAG B   2       8.129  25.571  27.900  1.00 41.21     0.214 C 
HETATM   28  O6  NAG B   2       9.034  24.443  28.339  1.00 29.51    -0.218 OA
ENDBRANCH   6  27
BRANCH   5  29
HETATM   29  O4  NAG B   2       6.156  24.160  26.593  1.00 37.56    -0.327 OA
BRANCH  29  30
HETATM   30  C1  NAG B   3       6.483  24.083  25.179  1.00 31.25     0.262 C 
HETATM   31  C2  NAG B   3       5.317  24.033  24.194  1.00 50.86     0.195 C 
HETATM   32  C3  NAG B   3       5.829  23.746  22.818  1.00 27.28     0.212 C 
HETATM   33  O3  NAG B   3       4.791  24.073  21.874  1.00 49.98    -0.218 OA
HETATM   34  C4  NAG B   3       7.078  24.613  22.475  1.00 62.31     0.214 C 
HETATM   35  O4  NAG B   3       7.770  24.019  21.325  1.00 75.30    -0.218 OA
HETATM   36  C5  NAG B   3       8.123  24.719  23.606  1.00 37.66     0.184 C 
HETATM   37  O5  NAG B   3       7.478  25.067  24.835  1.00 55.96    -0.327 OA
BRANCH  31  38
HETATM   38  N2  NAG B   3       4.431  22.890  24.710  1.00 55.71    -0.232 NA
HETATM   39  C7  NAG B   3       3.113  22.809  24.448  1.00 64.76     0.252 C 
HETATM   40  O7  NAG B   3       2.510  23.720  24.084  1.00 66.12    -0.271 OA
HETATM   41  C8  NAG B   3       2.527  21.453  24.650  1.00 56.03     0.100 C 
ENDBRANCH  31  38
BRANCH  36  42
HETATM   42  C6  NAG B   3       9.123  25.834  23.334  1.00 49.19     0.214 C 
HETATM   43  O6  NAG B   3       9.109  26.861  24.373  1.00 68.92    -0.218 OA
ENDBRANCH  36  42
ENDBRANCH  29  30
ENDBRANCH   5  29
TORSDOF 10
ENDMDL
MODEL 5
REMARK VINA RESULT:    -6.341      2.099      9.885
REMARK INTER + INTRA:         -12.539
REMARK INTER:                 -10.874
REMARK INTRA:                  -1.665
REMARK UNBOUND:                -2.490
REMARK  10 active torsions:
REMARK  status: ('A' for Active; 'I' for Inactive)
REMARK    1  A    between atoms: C2_3  and  N2_4 
REMARK       I    between atoms: N2_4  and  C7_13 
REMARK    2  A    between atoms: C4_7  and  O4_8 
REMARK    3  A    between atoms: O4_8  and  C1_16 
REMARK    4  A    between atoms: C5_9  and  C6_11 
REMARK    5  A    between atoms: C2_17  and  N2_18 
REMARK       I    between atoms: N2_18  and  C7_27 
REMARK    6  A    between atoms: C4_21  and  O4_22 
REMARK    7  A    between atoms: O4_22  and  C1_30 
REMARK    8  A    between atoms: C5_23  and  C6_25 
REMARK    9  A    between atoms: C2_31  and  N2_32 
REMARK       I    between atoms: N2_32  and  C7_41 
REMARK   10  A    between atoms: C5_37  and  C6_39 
ROOT
HETATM    1  C1  NAG B   2       6.868  26.387  25.563  1.00 24.54     0.262 C 
HETATM    2  C2  NAG B   2       6.464  25.360  24.346  1.00 38.18     0.195 C 
HETATM    3  C3  NAG B   2       7.779  24.821  23.700  1.00 40.28     0.209 C 
HETATM    4  O3  NAG B   2       7.436  24.040  22.543  1.00 44.52    -0.218 OA
HETATM    5  C4  NAG B   2       8.584  26.125  23.351  1.00 31.56     0.180 C 
HETATM    6  C5  NAG B   2       8.929  26.998  24.654  1.00 25.00     0.180 C 
HETATM    7  O5  NAG B   2       7.624  27.560  25.078  1.00 56.77    -0.327 OA
ENDROOT
BRANCH   1   8
HETATM    8  O4  NAG B   1       5.629  26.882  26.196  1.00 46.30    -0.327 OA
BRANCH   8   9
HETATM    9  C4  NAG B   1       5.321  26.823  27.737  1.00 41.63     0.180 C 
HETATM   10  C3  NAG B   1       3.767  27.000  27.853  1.00 14.31     0.209 C 
HETATM   11  C2  NAG B   1       3.337  26.576  29.243  1.00 29.05     0.198 C 
HETATM   12  O3  NAG B   1       3.484  28.380  27.582  1.00 28.14    -0.218 OA
HETATM   13  C1  NAG B   1       3.936  25.185  29.571  1.00 32.10     0.295 C 
HETATM   14  O1  NAG B   1       3.495  24.896  30.893  1.00 46.64    -0.188 OA
HETATM   15  O5  NAG B   1       5.397  25.392  29.700  1.00 32.95    -0.325 OA
HETATM   16  C5  NAG B   1       5.925  25.541  28.330  1.00 38.82     0.181 C 
BRANCH  11  17
HETATM   17  N2  NAG B   1       1.866  26.511  29.360  1.00 30.31    -0.232 NA
HETATM   18  C7  NAG B   1       1.133  27.370  30.111  1.00 19.61     0.252 C 
HETATM   19  O7  NAG B   1       1.636  28.186  30.737  1.00 24.37    -0.271 OA
HETATM   20  C8  NAG B   1      -0.333  27.139  30.023  1.00 14.43     0.100 C 
ENDBRANCH  11  17
BRANCH  16  21
HETATM   21  C6  NAG B   1       7.430  25.589  28.445  1.00 50.43     0.214 C 
HETATM   22  O6  NAG B   1       8.078  24.238  28.317  1.00 38.95    -0.218 OA
ENDBRANCH  16  21
ENDBRANCH   8   9
ENDBRANCH   1   8
BRANCH   2  23
HETATM   23  N2  NAG B   2       5.670  24.221  24.820  1.00 47.13    -0.232 NA
HETATM   24  C7  NAG B   2       4.648  23.664  24.125  1.00 36.27     0.252 C 
HETATM   25  O7  NAG B   2       4.277  24.108  23.131  1.00 77.29    -0.271 OA
HETATM   26  C8  NAG B   2       4.063  22.442  24.752  1.00 25.48     0.100 C 
ENDBRANCH   2  23
BRANCH   6  27
HETATM   27  C6  NAG B   2       9.853  28.126  24.289  1.00 41.21     0.214 C 
HETATM   28  O6  NAG B   2       8.994  29.211  23.682  1.00 29.51    -0.218 OA
ENDBRANCH   6  27
BRANCH   5  29
HETATM   29  O4  NAG B   2       9.862  25.877  22.696  1.00 37.56    -0.327 OA
BRANCH  29  30
HETATM   30  C1  NAG B   3      10.392  25.833  21.343  1.00 31.25     0.262 C 
HETATM   31  C2  NAG B   3      11.902  25.982  21.179  1.00 50.86     0.195 C 
HETATM   32  C3  NAG B   3      12.242  26.124  19.729  1.00 27.28     0.212 C 
HETATM   33  O3  NAG B   3      13.654  25.885  19.571  1.00 49.98    -0.218 OA
HETATM   34  C4  NAG B   3      11.480  25.083  18.854  1.00 62.31     0.214 C 
HETATM   35  O4  NAG B   3      11.520  25.517  17.452  1.00 75.30    -0.218 OA
HETATM   36  C5  NAG B   3       9.991  24.902  19.212  1.00 37.66     0.184 C 
HETATM   37  O5  NAG B   3       9.848  24.710  20.623  1.00 55.96    -0.327 OA
BRANCH  31  38
HETATM   38  N2  NAG B   3      12.247  27.258  21.960  1.00 55.71    -0.232 NA
HETATM   39  C7  NAG B   3      13.244  27.319  22.862  1.00 64.76     0.252 C 
HETATM   40  O7  NAG B   3      13.704  26.368  23.323  1.00 66.12    -0.271 OA
HETATM   41  C8  NAG B   3      13.701  28.700  23.185  1.00 56.03     0.100 C 
ENDBRANCH  31  38
BRANCH  36  42
HETATM   42  C6  NAG B   3       9.412  23.652  18.565  1.00 49.19     0.214 C 
HETATM   43  O6  NAG B   3       8.504  22.932  19.455  1.00 68.92    -0.218 OA
ENDBRANCH  36  42
ENDBRANCH  29  30
ENDBRANCH   5  29
TORSDOF 10
ENDMDL
MODEL 6
REMARK VINA RESULT:    -6.316      2.300      9.945
REMARK INTER + INTRA:         -12.499
REMARK INTER:                  -9.927
REMARK INTRA:                  -2.572
REMARK UNBOUND:                -2.490
REMARK  10 active torsions:
REMARK  status: ('A' for Active; 'I' for Inactive)
REMARK    1  A    between atoms: C2_3  and  N2_4 
REMARK       I    between atoms: N2_4  and  C7_13 
REMARK    2  A    between atoms: C4_7  and  O4_8 
REMARK    3  A    between atoms: O4_8  and  C1_16 
REMARK    4  A    between atoms: C5_9  and  C6_11 
REMARK    5  A    between atoms: C2_17  and  N2_18 
REMARK       I    between atoms: N2_18  and  C7_27 
REMARK    6  A    between atoms: C4_21  and  O4_22 
REMARK    7  A    between atoms: O4_22  and  C1_30 
REMARK    8  A    between atoms: C5_23  and  C6_25 
REMARK    9  A    between atoms: C2_31  and  N2_32 
REMARK       I    between atoms: N2_32  and  C7_41 
REMARK   10  A    between atoms: C5_37  and  C6_39 
ROOT
HETATM    1  C1  NAG B   2       7.601  24.916  25.482  1.00 24.54     0.262 C 
HETATM    2  C2  NAG B   2       9.237  25.021  25.580  1.00 38.18     0.195 C 
HETATM    3  C3  NAG B   2       9.740  25.957  24.435  1.00 40.28     0.209 C 
HETATM    4  O3  NAG B   2      11.177  25.936  24.422  1.00 44.52    -0.218 OA
HETATM    5  C4  NAG B   2       9.099  25.336  23.140  1.00 31.56     0.180 C 
HETATM    6  C5  NAG B   2       7.494  25.340  23.189  1.00 25.00     0.180 C 
HETATM    7  O5  NAG B   2       7.154  24.317  24.207  1.00 56.77    -0.327 OA
ENDROOT
BRANCH   1   8
HETATM    8  O4  NAG B   1       7.115  24.053  26.577  1.00 46.30    -0.327 OA
BRANCH   8   9
HETATM    9  C4  NAG B   1       5.909  24.397  27.525  1.00 41.63     0.180 C 
HETATM   10  C3  NAG B   1       6.341  25.700  28.285  1.00 14.31     0.209 C 
HETATM   11  C2  NAG B   1       5.113  26.315  28.922  1.00 29.05     0.198 C 
HETATM   12  O3  NAG B   1       7.330  25.311  29.249  1.00 28.14    -0.218 OA
HETATM   13  C1  NAG B   1       3.982  26.430  27.869  1.00 32.10     0.295 C 
HETATM   14  O1  NAG B   1       2.878  26.991  28.571  1.00 46.64    -0.188 OA
HETATM   15  O5  NAG B   1       3.566  25.042  27.565  1.00 32.95    -0.325 OA
HETATM   16  C5  NAG B   1       4.615  24.465  26.701  1.00 38.82     0.181 C 
BRANCH  11  17
HETATM   17  N2  NAG B   1       5.399  27.654  29.474  1.00 30.31    -0.232 NA
HETATM   18  C7  NAG B   1       5.519  27.912  30.800  1.00 19.61     0.252 C 
HETATM   19  O7  NAG B   1       5.362  27.087  31.579  1.00 24.37    -0.271 OA
HETATM   20  C8  NAG B   1       5.869  29.324  31.106  1.00 14.43     0.100 C 
ENDBRANCH  11  17
BRANCH  16  21
HETATM   21  C6  NAG B   1       4.118  23.111  26.257  1.00 50.43     0.214 C 
HETATM   22  O6  NAG B   1       4.235  22.892  24.774  1.00 38.95    -0.218 OA
ENDBRANCH  16  21
ENDBRANCH   8   9
ENDBRANCH   1   8
BRANCH   2  23
HETATM   23  N2  NAG B   2       9.683  25.569  26.865  1.00 47.13    -0.232 NA
HETATM   24  C7  NAG B   2      10.495  24.913  27.731  1.00 36.27     0.252 C 
HETATM   25  O7  NAG B   2      10.831  23.830  27.546  1.00 77.29    -0.271 OA
HETATM   26  C8  NAG B   2      10.911  25.714  28.921  1.00 25.48     0.100 C 
ENDBRANCH   2  23
BRANCH   6  27
HETATM   27  C6  NAG B   2       6.937  24.913  21.859  1.00 41.21     0.214 C 
HETATM   28  O6  NAG B   2       7.088  23.411  21.788  1.00 29.51    -0.218 OA
ENDBRANCH   6  27
BRANCH   5  29
HETATM   29  O4  NAG B   2       9.455  26.032  21.909  1.00 37.56    -0.327 OA
BRANCH  29  30
HETATM   30  C1  NAG B   3      10.211  25.763  20.697  1.00 31.25     0.262 C 
HETATM   31  C2  NAG B   3      11.729  25.898  20.775  1.00 50.86     0.195 C 
HETATM   32  C3  NAG B   3      12.318  25.795  19.404  1.00 27.28     0.212 C 
HETATM   33  O3  NAG B   3      13.732  25.548  19.538  1.00 49.98    -0.218 OA
HETATM   34  C4  NAG B   3      11.700  24.612  18.599  1.00 62.31     0.214 C 
HETATM   35  O4  NAG B   3      11.992  24.800  17.174  1.00 75.30    -0.218 OA
HETATM   36  C5  NAG B   3      10.168  24.478  18.718  1.00 37.66     0.184 C 
HETATM   37  O5  NAG B   3       9.779  24.528  20.094  1.00 55.96    -0.327 OA
BRANCH  31  38
HETATM   38  N2  NAG B   3      11.957  27.293  21.377  1.00 55.71    -0.232 NA
HETATM   39  C7  NAG B   3      13.047  27.610  22.100  1.00 64.76     0.252 C 
HETATM   40  O7  NAG B   3      13.723  26.802  22.565  1.00 66.12    -0.271 OA
HETATM   41  C8  NAG B   3      13.301  29.074  22.224  1.00 56.03     0.100 C 
ENDBRANCH  31  38
BRANCH  36  42
HETATM   42  C6  NAG B   3       9.687  23.130  18.201  1.00 49.19     0.214 C 
HETATM   43  O6  NAG B   3       8.908  23.250  16.971  1.00 68.92    -0.218 OA
ENDBRANCH  36  42
ENDBRANCH  29  30
ENDBRANCH   5  29
TORSDOF 10
ENDMDL
MODEL 7
REMARK VINA RESULT:    -6.276      2.369      9.820
REMARK INTER + INTRA:         -12.435
REMARK INTER:                 -10.135
REMARK INTRA:                  -2.300
REMARK UNBOUND:                -2.490
REMARK  10 active torsions:
REMARK  status: ('A' for Active; 'I' for Inactive)
REMARK    1  A    between atoms: C2_3  and  N2_4 
REMARK       I    between atoms: N2_4  and  C7_13 
REMARK    2  A    between atoms: C4_7  and  O4_8 
REMARK    3  A    between atoms: O4_8  and  C1_16 
REMARK    4  A    between atoms: C5_9  and  C6_11 
REMARK    5  A    between atoms: C2_17  and  N2_18 
REMARK       I    between atoms: N2_18  and  C7_27 
REMARK    6  A    between atoms: C4_21  and  O4_22 
REMARK    7  A    between atoms: O4_22  and  C1_30 
REMARK    8  A    between atoms: C5_23  and  C6_25 
REMARK    9  A    between atoms: C2_31  and  N2_32 
REMARK       I    between atoms: N2_32  and  C7_41 
REMARK   10  A    between atoms: C5_37  and  C6_39 
ROOT
HETATM    1  C1  NAG B   2       7.281  25.591  27.040  1.00 24.54     0.262 C 
HETATM    2  C2  NAG B   2       8.791  24.967  27.206  1.00 38.18     0.195 C 
HETATM    3  C3  NAG B   2       9.622  25.343  25.938  1.00 40.28     0.209 C 
HETATM    4  O3  NAG B   2      10.894  24.677  26.008  1.00 44.52    -0.218 OA
HETATM    5  C4  NAG B   2       8.726  24.845  24.746  1.00 31.56     0.180 C 
HETATM    6  C5  NAG B   2       7.298  25.578  24.706  1.00 25.00     0.180 C 
HETATM    7  O5  NAG B   2       6.568  25.029  25.874  1.00 56.77    -0.327 OA
ENDROOT
BRANCH   1   8
HETATM    8  O4  NAG B   1       6.496  25.261  28.247  1.00 46.30    -0.327 OA
BRANCH   8   9
HETATM    9  C4  NAG B   1       5.570  26.269  29.020  1.00 41.63     0.180 C 
HETATM   10  C3  NAG B   1       4.118  25.693  28.866  1.00 14.31     0.209 C 
HETATM   11  C2  NAG B   1       3.222  26.370  29.884  1.00 29.05     0.198 C 
HETATM   12  O3  NAG B   1       3.711  25.947  27.514  1.00 28.14    -0.218 OA
HETATM   13  C1  NAG B   1       3.884  26.307  31.283  1.00 32.10     0.295 C 
HETATM   14  O1  NAG B   1       2.982  26.984  32.150  1.00 46.64    -0.188 OA
HETATM   15  O5  NAG B   1       5.071  27.190  31.213  1.00 32.95    -0.325 OA
HETATM   16  C5  NAG B   1       6.100  26.457  30.449  1.00 38.82     0.181 C 
BRANCH  11  17
HETATM   17  N2  NAG B   1       1.892  25.732  29.946  1.00 30.31    -0.232 NA
HETATM   18  C7  NAG B   1       0.728  26.398  29.747  1.00 19.61     0.252 C 
HETATM   19  O7  NAG B   1       0.718  27.526  29.553  1.00 24.37    -0.271 OA
HETATM   20  C8  NAG B   1      -0.475  25.527  29.804  1.00 14.43     0.100 C 
ENDBRANCH  11  17
BRANCH  16  21
HETATM   21  C6  NAG B   1       7.362  27.282  30.514  1.00 50.43     0.214 C 
HETATM   22  O6  NAG B   1       7.490  28.260  29.379  1.00 38.95    -0.218 OA
ENDBRANCH  16  21
ENDBRANCH   8   9
ENDBRANCH   1   8
BRANCH   2  23
HETATM   23  N2  NAG B   2       9.481  25.486  28.392  1.00 47.13    -0.232 NA
HETATM   24  C7  NAG B   2       9.777  24.744  29.487  1.00 36.27     0.252 C 
HETATM   25  O7  NAG B   2       9.429  23.653  29.593  1.00 77.29    -0.271 OA
HETATM   26  C8  NAG B   2      10.585  25.456  30.521  1.00 25.48     0.100 C 
ENDBRANCH   2  23
BRANCH   6  27
HETATM   27  C6  NAG B   2       6.562  25.205  23.449  1.00 41.21     0.214 C 
HETATM   28  O6  NAG B   2       6.019  23.811  23.662  1.00 29.51    -0.218 OA
ENDBRANCH   6  27
BRANCH   5  29
HETATM   29  O4  NAG B   2       9.314  25.061  23.430  1.00 37.56    -0.327 OA
BRANCH  29  30
HETATM   30  C1  NAG B   3      10.136  26.059  22.765  1.00 31.25     0.262 C 
HETATM   31  C2  NAG B   3       9.909  26.268  21.270  1.00 50.86     0.195 C 
HETATM   32  C3  NAG B   3      10.971  27.165  20.718  1.00 27.28     0.212 C 
HETATM   33  O3  NAG B   3      10.533  27.642  19.430  1.00 49.98    -0.218 OA
HETATM   34  C4  NAG B   3      11.211  28.404  21.631  1.00 62.31     0.214 C 
HETATM   35  O4  NAG B   3      12.500  29.012  21.283  1.00 75.30    -0.218 OA
HETATM   36  C5  NAG B   3      11.268  28.095  23.141  1.00 37.66     0.184 C 
HETATM   37  O5  NAG B   3      10.148  27.288  23.517  1.00 55.96    -0.327 OA
BRANCH  31  38
HETATM   38  N2  NAG B   3      10.003  24.857  20.670  1.00 55.71    -0.232 NA
HETATM   39  C7  NAG B   3       8.949  24.221  20.125  1.00 64.76     0.252 C 
HETATM   40  O7  NAG B   3       7.866  24.553  20.334  1.00 66.12    -0.271 OA
HETATM   41  C8  NAG B   3       9.310  23.085  19.230  1.00 56.03     0.100 C 
ENDBRANCH  31  38
BRANCH  36  42
HETATM   42  C6  NAG B   3      11.160  29.365  23.973  1.00 49.19     0.214 C 
HETATM   43  O6  NAG B   3      11.317  29.110  25.403  1.00 68.92    -0.218 OA
ENDBRANCH  36  42
ENDBRANCH  29  30
ENDBRANCH   5  29
TORSDOF 10
ENDMDL
MODEL 8
REMARK VINA RESULT:    -6.156      2.905      9.803
REMARK INTER + INTRA:         -12.246
REMARK INTER:                  -9.702
REMARK INTRA:                  -2.544
REMARK UNBOUND:                -2.490
REMARK  10 active torsions:
REMARK  status: ('A' for Active; 'I' for Inactive)
REMARK    1  A    between atoms: C2_3  and  N2_4 
REMARK       I    between atoms: N2_4  and  C7_13 
REMARK    2  A    between atoms: C4_7  and  O4_8 
REMARK    3  A    between atoms: O4_8  and  C1_16 
REMARK    4  A    between atoms: C5_9  and  C6_11 
REMARK    5  A    between atoms: C2_17  and  N2_18 
REMARK       I    between atoms: N2_18  and  C7_27 
REMARK    6  A    between atoms: C4_21  and  O4_22 
REMARK    7  A    between atoms: O4_22  and  C1_30 
REMARK    8  A    between atoms: C5_23  and  C6_25 
REMARK    9  A    between atoms: C2_31  and  N2_32 
REMARK       I    between atoms: N2_32  and  C7_41 
REMARK   10  A    between atoms: C5_37  and  C6_39 
ROOT
HETATM    1  C1  NAG B   2       3.603  27.543  29.715  1.00 24.54     0.262 C 
HETATM    2  C2  NAG B   2       3.156  25.963  29.752  1.00 38.18     0.195 C 
HETATM    3  C3  NAG B   2       4.273  25.119  29.060  1.00 40.28     0.209 C 
HETATM    4  O3  NAG B   2       3.823  23.758  28.956  1.00 44.52    -0.218 OA
HETATM    5  C4  NAG B   2       4.457  25.819  27.665  1.00 31.56     0.180 C 
HETATM    6  C5  NAG B   2       4.929  27.348  27.804  1.00 25.00     0.180 C 
HETATM    7  O5  NAG B   2       3.738  28.054  28.336  1.00 56.77    -0.327 OA
ENDROOT
BRANCH   1   8
HETATM    8  O4  NAG B   1       2.564  28.345  30.391  1.00 46.30    -0.327 OA
BRANCH   8   9
HETATM    9  C4  NAG B   1       2.837  29.399  31.525  1.00 41.63     0.180 C 
HETATM   10  C3  NAG B   1       2.879  28.569  32.856  1.00 14.31     0.209 C 
HETATM   11  C2  NAG B   1       3.511  29.423  33.936  1.00 29.05     0.198 C 
HETATM   12  O3  NAG B   1       1.526  28.201  33.160  1.00 28.14    -0.218 OA
HETATM   13  C1  NAG B   1       4.839  30.025  33.413  1.00 32.10     0.295 C 
HETATM   14  O1  NAG B   1       5.332  30.821  34.486  1.00 46.64    -0.188 OA
HETATM   15  O5  NAG B   1       4.460  31.001  32.366  1.00 32.95    -0.325 OA
HETATM   16  C5  NAG B   1       4.088  30.217  31.172  1.00 38.82     0.181 C 
BRANCH  11  17
HETATM   17  N2  NAG B   1       3.780  28.642  35.159  1.00 30.31    -0.232 NA
HETATM   18  C7  NAG B   1       3.121  28.825  36.330  1.00 19.61     0.252 C 
HETATM   19  O7  NAG B   1       2.327  29.643  36.440  1.00 24.37    -0.271 OA
HETATM   20  C8  NAG B   1       3.529  27.877  37.400  1.00 14.43     0.100 C 
ENDBRANCH  11  17
BRANCH  16  21
HETATM   21  C6  NAG B   1       3.858  31.206  30.055  1.00 50.43     0.214 C 
HETATM   22  O6  NAG B   1       4.892  31.125  28.967  1.00 38.95    -0.218 OA
ENDBRANCH  16  21
ENDBRANCH   8   9
ENDBRANCH   1   8
BRANCH   2  23
HETATM   23  N2  NAG B   2       2.973  25.468  31.121  1.00 47.13    -0.232 NA
HETATM   24  C7  NAG B   2       1.766  25.202  31.679  1.00 36.27     0.252 C 
HETATM   25  O7  NAG B   2       0.781  25.427  31.130  1.00 77.29    -0.271 OA
HETATM   26  C8  NAG B   2       1.831  24.597  33.043  1.00 25.48     0.100 C 
ENDBRANCH   2  23
BRANCH   6  27
HETATM   27  C6  NAG B   2       5.268  27.908  26.451  1.00 41.21     0.214 C 
HETATM   28  O6  NAG B   2       4.472  29.183  26.297  1.00 29.51    -0.218 OA
ENDBRANCH   6  27
BRANCH   5  29
HETATM   29  O4  NAG B   2       5.446  25.181  26.805  1.00 37.56    -0.327 OA
BRANCH  29  30
HETATM   30  C1  NAG B   3       6.851  24.813  26.863  1.00 31.25     0.262 C 
HETATM   31  C2  NAG B   3       7.706  25.119  25.636  1.00 50.86     0.195 C 
HETATM   32  C3  NAG B   3       9.054  24.489  25.789  1.00 27.28     0.212 C 
HETATM   33  O3  NAG B   3       9.944  25.092  24.829  1.00 49.98    -0.218 OA
HETATM   34  C4  NAG B   3       9.647  24.734  27.210  1.00 62.31     0.214 C 
HETATM   35  O4  NAG B   3      10.738  23.781  27.442  1.00 75.30    -0.218 OA
HETATM   36  C5  NAG B   3       8.648  24.545  28.370  1.00 37.66     0.184 C 
HETATM   37  O5  NAG B   3       7.442  25.265  28.098  1.00 55.96    -0.327 OA
BRANCH  31  38
HETATM   38  N2  NAG B   3       6.929  24.498  24.466  1.00 55.71    -0.232 NA
HETATM   39  C7  NAG B   3       6.423  25.226  23.453  1.00 64.76     0.252 C 
HETATM   40  O7  NAG B   3       6.276  26.365  23.539  1.00 66.12    -0.271 OA
HETATM   41  C8  NAG B   3       6.098  24.439  22.230  1.00 56.03     0.100 C 
ENDBRANCH  31  38
BRANCH  36  42
HETATM   42  C6  NAG B   3       9.190  25.123  29.669  1.00 49.19     0.214 C 
HETATM   43  O6  NAG B   3       8.390  26.244  30.157  1.00 68.92    -0.218 OA
ENDBRANCH  36  42
ENDBRANCH  29  30
ENDBRANCH   5  29
TORSDOF 10
ENDMDL
MODEL 9
REMARK VINA RESULT:    -6.148      2.799     10.096
REMARK INTER + INTRA:         -12.233
REMARK INTER:                 -10.031
REMARK INTRA:                  -2.203
REMARK UNBOUND:                -2.490
REMARK  10 active torsions:
REMARK  status: ('A' for Active; 'I' for Inactive)
REMARK    1  A    between atoms: C2_3  and  N2_4 
REMARK       I    between atoms: N2_4  and  C7_13 
REMARK    2  A    between atoms: C4_7  and  O4_8 
REMARK    3  A    between atoms: O4_8  and  C1_16 
REMARK    4  A    between atoms: C5_9  and  C6_11 
REMARK    5  A    between atoms: C2_17  and  N2_18 
REMARK       I    between atoms: N2_18  and  C7_27 
REMARK    6  A    between atoms: C4_21  and  O4_22 
REMARK    7  A    between atoms: O4_22  and  C1_30 
REMARK    8  A    between atoms: C5_23  and  C6_25 
REMARK    9  A    between atoms: C2_31  and  N2_32 
REMARK       I    between atoms: N2_32  and  C7_41 
REMARK   10  A    between atoms: C5_37  and  C6_39 
ROOT
HETATM    1  C1  NAG B   2       2.588  27.633  28.818  1.00 24.54     0.262 C 
HETATM    2  C2  NAG B   2       3.641  28.802  28.345  1.00 38.18     0.195 C 
HETATM    3  C3  NAG B   2       4.450  28.270  27.120  1.00 40.28     0.209 C 
HETATM    4  O3  NAG B   2       5.473  29.226  26.794  1.00 44.52    -0.218 OA
HETATM    5  C4  NAG B   2       5.024  26.895  27.622  1.00 31.56     0.180 C 
HETATM    6  C5  NAG B   2       3.865  25.854  28.011  1.00 25.00     0.180 C 
HETATM    7  O5  NAG B   2       3.279  26.403  29.257  1.00 56.77    -0.327 OA
ENDROOT
BRANCH   1   8
HETATM    8  O4  NAG B   1       1.802  28.138  29.961  1.00 46.30    -0.327 OA
BRANCH   8   9
HETATM    9  C4  NAG B   1       1.910  27.600  31.434  1.00 41.63     0.180 C 
HETATM   10  C3  NAG B   1       2.370  28.833  32.290  1.00 14.31     0.209 C 
HETATM   11  C2  NAG B   1       2.131  28.519  33.753  1.00 29.05     0.198 C 
HETATM   12  O3  NAG B   1       3.755  29.054  31.989  1.00 28.14    -0.218 OA
HETATM   13  C1  NAG B   1       0.683  28.001  33.944  1.00 32.10     0.295 C 
HETATM   14  O1  NAG B   1       0.574  27.716  35.335  1.00 46.64    -0.188 OA
HETATM   15  O5  NAG B   1       0.634  26.676  33.285  1.00 32.95    -0.325 OA
HETATM   16  C5  NAG B   1       0.587  26.928  31.831  1.00 38.82     0.181 C 
BRANCH  11  17
HETATM   17  N2  NAG B   1       2.339  29.707  34.604  1.00 30.31    -0.232 NA
HETATM   18  C7  NAG B   1       3.424  29.884  35.398  1.00 19.61     0.252 C 
HETATM   19  O7  NAG B   1       4.237  29.081  35.476  1.00 24.37    -0.271 OA
HETATM   20  C8  NAG B   1       3.435  31.186  36.114  1.00 14.43     0.100 C 
ENDBRANCH  11  17
BRANCH  16  21
HETATM   21  C6  NAG B   1       0.373  25.592  31.163  1.00 50.43     0.214 C 
HETATM   22  O6  NAG B   1      -0.382  25.690  29.867  1.00 38.95    -0.218 OA
ENDBRANCH  16  21
ENDBRANCH   8   9
ENDBRANCH   1   8
BRANCH   2  23
HETATM   23  N2  NAG B   2       2.960  30.041  27.957  1.00 47.13    -0.232 NA
HETATM   24  C7  NAG B   2       3.058  31.210  28.638  1.00 36.27     0.252 C 
HETATM   25  O7  NAG B   2       3.632  31.287  29.631  1.00 77.29    -0.271 OA
HETATM   26  C8  NAG B   2       2.370  32.366  27.990  1.00 25.48     0.100 C 
ENDBRANCH   2  23
BRANCH   6  27
HETATM   27  C6  NAG B   2       4.461  24.504  28.302  1.00 41.21     0.214 C 
HETATM   28  O6  NAG B   2       4.163  23.631  27.106  1.00 29.51    -0.218 OA
ENDBRANCH   6  27
BRANCH   5  29
HETATM   29  O4  NAG B   2       5.857  26.206  26.644  1.00 37.56    -0.327 OA
BRANCH  29  30
HETATM   30  C1  NAG B   3       7.164  25.572  26.595  1.00 31.25     0.262 C 
HETATM   31  C2  NAG B   3       7.792  25.369  25.218  1.00 50.86     0.195 C 
HETATM   32  C3  NAG B   3       9.020  24.524  25.342  1.00 27.28     0.212 C 
HETATM   33  O3  NAG B   3       9.784  24.660  24.127  1.00 49.98    -0.218 OA
HETATM   34  C4  NAG B   3       9.920  24.985  26.527  1.00 62.31     0.214 C 
HETATM   35  O4  NAG B   3      10.863  23.910  26.857  1.00 75.30    -0.218 OA
HETATM   36  C5  NAG B   3       9.159  25.312  27.829  1.00 37.66     0.184 C 
HETATM   37  O5  NAG B   3       8.059  26.183  27.546  1.00 55.96    -0.327 OA
BRANCH  31  38
HETATM   38  N2  NAG B   3       6.702  24.656  24.405  1.00 55.71    -0.232 NA
HETATM   39  C7  NAG B   3       6.034  25.247  23.397  1.00 64.76     0.252 C 
HETATM   40  O7  NAG B   3       6.015  26.392  23.271  1.00 66.12    -0.271 OA
HETATM   41  C8  NAG B   3       5.353  24.301  22.469  1.00 56.03     0.100 C 
ENDBRANCH  31  38
BRANCH  36  42
HETATM   42  C6  NAG B   3      10.041  26.069  28.812  1.00 49.19     0.214 C 
HETATM   43  O6  NAG B   3       9.274  26.962  29.676  1.00 68.92    -0.218 OA
ENDBRANCH  36  42
ENDBRANCH  29  30
ENDBRANCH   5  29
TORSDOF 10
ENDMDL
