MODEL 1
REMARK VINA RESULT:    -6.886      0.000      0.000
REMARK INTER + INTRA:         -13.353
REMARK INTER:                 -10.912
REMARK INTRA:                  -2.441
REMARK UNBOUND:                -2.441
REMARK  10 active torsions:
REMARK  status: ('A' for Active; 'I' for Inactive)
REMARK    1  A    between atoms: C2_3  and  N2_4 
REMARK       I    between atoms: N2_4  and  C7_13 
REMARK    2  A    between atoms: C4_7  and  O4_8 
REMARK    3  A    between atoms: O4_8  and  C1_16 
REMARK    4  A    between atoms: C5_9  and  C6_11 
REMARK    5  A    between atoms: C2_17  and  N2_18 
REMARK       I    between atoms: N2_18  and  C7_27 
REMARK    6  A    between atoms: C4_21  and  O4_22 
REMARK    7  A    between atoms: O4_22  and  C1_30 
REMARK    8  A    between atoms: C5_23  and  C6_25 
REMARK    9  A    between atoms: C2_31  and  N2_32 
REMARK       I    between atoms: N2_32  and  C7_41 
REMARK   10  A    between atoms: C5_37  and  C6_39 
ROOT
HETATM    1  C1  NAG B   2       6.761  24.975  25.664  1.00 24.54     0.262 C 
HETATM    2  C2  NAG B   2       5.475  24.131  26.241  1.00 38.18     0.195 C 
HETATM    3  C3  NAG B   2       4.884  24.907  27.460  1.00 40.28     0.209 C 
HETATM    4  O3  NAG B   2       3.854  24.104  28.060  1.00 44.52    -0.218 OA
HETATM    5  C4  NAG B   2       6.126  25.125  28.399  1.00 31.56     0.180 C 
HETATM    6  C5  NAG B   2       7.277  25.998  27.698  1.00 25.00     0.180 C 
HETATM    7  O5  NAG B   2       7.843  25.099  26.663  1.00 56.77    -0.327 OA
ENDROOT
BRANCH   1   8
HETATM    8  O4  NAG B   1       7.311  24.261  24.494  1.00 46.30    -0.327 OA
BRANCH   8   9
HETATM    9  C4  NAG B   1       7.560  24.906  23.083  1.00 41.63     0.180 C 
HETATM   10  C3  NAG B   1       9.085  25.275  23.062  1.00 14.31     0.209 C 
HETATM   11  C2  NAG B   1       9.496  25.541  21.628  1.00 29.05     0.198 C 
HETATM   12  O3  NAG B   1       9.247  26.423  23.907  1.00 28.14    -0.218 OA
HETATM   13  C1  NAG B   1       9.018  24.376  20.725  1.00 32.10     0.295 C 
HETATM   14  O1  NAG B   1       9.430  24.735  19.410  1.00 46.64    -0.188 OA
HETATM   15  O5  NAG B   1       7.540  24.466  20.693  1.00 32.95    -0.325 OA
HETATM   16  C5  NAG B   1       7.056  23.953  21.989  1.00 38.82     0.181 C 
BRANCH  11  17
HETATM   17  N2  NAG B   1      10.959  25.686  21.500  1.00 30.31    -0.232 NA
HETATM   18  C7  NAG B   1      11.579  26.860  21.223  1.00 19.61     0.252 C 
HETATM   19  O7  NAG B   1      10.976  27.815  21.032  1.00 24.37    -0.271 OA
HETATM   20  C8  NAG B   1      13.062  26.764  21.203  1.00 14.43     0.100 C 
ENDBRANCH  11  17
BRANCH  16  21
HETATM   21  C6  NAG B   1       5.551  23.890  21.899  1.00 50.43     0.214 C 
HETATM   22  O6  NAG B   1       4.889  25.227  22.081  1.00 38.95    -0.218 OA
ENDBRANCH  16  21
ENDBRANCH   8   9
ENDBRANCH   1   8
BRANCH   2  23
HETATM   23  N2  NAG B   2       4.422  23.965  25.233  1.00 47.13    -0.232 NA
HETATM   24  C7  NAG B   2       3.715  22.822  25.053  1.00 36.27     0.252 C 
HETATM   25  O7  NAG B   2       3.954  21.862  25.638  1.00 77.29    -0.271 OA
HETATM   26  C8  NAG B   2       2.615  22.924  24.048  1.00 25.48     0.100 C 
ENDBRANCH   2  23
BRANCH   6  27
HETATM   27  C6  NAG B   2       8.350  26.332  28.697  1.00 41.21     0.214 C 
HETATM   28  O6  NAG B   2       9.674  26.071  28.015  1.00 29.51    -0.218 OA
ENDBRANCH   6  27
BRANCH   5  29
HETATM   29  O4  NAG B   2       5.815  25.816  29.645  1.00 37.56    -0.327 OA
BRANCH  29  30
HETATM   30  C1  NAG B   3       4.654  26.401  30.295  1.00 31.25     0.262 C 
HETATM   31  C2  NAG B   3       3.841  27.415  29.494  1.00 50.86     0.195 C 
HETATM   32  C3  NAG B   3       2.824  28.061  30.381  1.00 27.28     0.212 C 
HETATM   33  O3  NAG B   3       1.847  28.712  29.545  1.00 49.98    -0.218 OA
HETATM   34  C4  NAG B   3       2.078  27.013  31.261  1.00 62.31     0.214 C 
HETATM   35  O4  NAG B   3       1.414  27.708  32.371  1.00 75.30    -0.218 OA
HETATM   36  C5  NAG B   3       2.984  25.940  31.898  1.00 37.66     0.184 C 
HETATM   37  O5  NAG B   3       3.845  25.375  30.904  1.00 55.96    -0.327 OA
BRANCH  31  38
HETATM   38  N2  NAG B   3       4.880  28.433  29.003  1.00 55.71    -0.232 NA
HETATM   39  C7  NAG B   3       4.930  28.874  27.732  1.00 64.76     0.252 C 
HETATM   40  O7  NAG B   3       4.408  28.311  26.873  1.00 66.12    -0.271 OA
HETATM   41  C8  NAG B   3       5.692  30.141  27.548  1.00 56.03     0.100 C 
ENDBRANCH  31  38
BRANCH  36  42
HETATM   42  C6  NAG B   3       2.168  24.777  32.446  1.00 49.19     0.214 C 
HETATM   43  O6  NAG B   3       1.972  24.866  33.891  1.00 68.92    -0.218 OA
ENDBRANCH  36  42
ENDBRANCH  29  30
ENDBRANCH   5  29
TORSDOF 10
ENDMDL
MODEL 2
REMARK VINA RESULT:    -6.519      2.400      9.252
REMARK INTER + INTRA:         -12.771
REMARK INTER:                 -10.194
REMARK INTRA:                  -2.577
REMARK UNBOUND:                -2.441
REMARK  10 active torsions:
REMARK  status: ('A' for Active; 'I' for Inactive)
REMARK    1  A    between atoms: C2_3  and  N2_4 
REMARK       I    between atoms: N2_4  and  C7_13 
REMARK    2  A    between atoms: C4_7  and  O4_8 
REMARK    3  A    between atoms: O4_8  and  C1_16 
REMARK    4  A    between atoms: C5_9  and  C6_11 
REMARK    5  A    between atoms: C2_17  and  N2_18 
REMARK       I    between atoms: N2_18  and  C7_27 
REMARK    6  A    between atoms: C4_21  and  O4_22 
REMARK    7  A    between atoms: O4_22  and  C1_30 
REMARK    8  A    between atoms: C5_23  and  C6_25 
REMARK    9  A    between atoms: C2_31  and  N2_32 
REMARK       I    between atoms: N2_32  and  C7_41 
REMARK   10  A    between atoms: C5_37  and  C6_39 
ROOT
HETATM    1  C1  NAG B   2       7.106  25.024  26.742  1.00 24.54     0.262 C 
HETATM    2  C2  NAG B   2       8.694  24.718  27.032  1.00 38.18     0.195 C 
HETATM    3  C3  NAG B   2       9.529  25.267  25.833  1.00 40.28     0.209 C 
HETATM    4  O3  NAG B   2      10.900  24.873  26.008  1.00 44.52    -0.218 OA
HETATM    5  C4  NAG B   2       8.851  24.608  24.576  1.00 31.56     0.180 C 
HETATM    6  C5  NAG B   2       7.312  25.036  24.417  1.00 25.00     0.180 C 
HETATM    7  O5  NAG B   2       6.618  24.339  25.527  1.00 56.77    -0.327 OA
ENDROOT
BRANCH   1   8
HETATM    8  O4  NAG B   1       6.311  24.531  27.884  1.00 46.30    -0.327 OA
BRANCH   8   9
HETATM    9  C4  NAG B   1       5.160  25.334  28.591  1.00 41.63     0.180 C 
HETATM   10  C3  NAG B   1       5.831  26.660  29.094  1.00 14.31     0.209 C 
HETATM   11  C2  NAG B   1       4.739  27.652  29.438  1.00 29.05     0.198 C 
HETATM   12  O3  NAG B   1       6.642  26.313  30.225  1.00 28.14    -0.218 OA
HETATM   13  C1  NAG B   1       3.733  27.747  28.263  1.00 32.10     0.295 C 
HETATM   14  O1  NAG B   1       2.746  28.676  28.697  1.00 46.64    -0.188 OA
HETATM   15  O5  NAG B   1       3.030  26.444  28.223  1.00 32.95    -0.325 OA
HETATM   16  C5  NAG B   1       3.970  25.473  27.630  1.00 38.82     0.181 C 
BRANCH  11  17
HETATM   17  N2  NAG B   1       5.290  28.993  29.715  1.00 30.31    -0.232 NA
HETATM   18  C7  NAG B   1       5.319  29.555  30.949  1.00 19.61     0.252 C 
HETATM   19  O7  NAG B   1       4.871  29.016  31.855  1.00 24.37    -0.271 OA
HETATM   20  C8  NAG B   1       5.977  30.887  30.984  1.00 14.43     0.100 C 
ENDBRANCH  11  17
BRANCH  16  21
HETATM   21  C6  NAG B   1       3.205  24.187  27.437  1.00 50.43     0.214 C 
HETATM   22  O6  NAG B   1       3.468  23.533  26.110  1.00 38.95    -0.218 OA
ENDBRANCH  16  21
ENDBRANCH   8   9
ENDBRANCH   1   8
BRANCH   2  23
HETATM   23  N2  NAG B   2       9.166  25.357  28.265  1.00 47.13    -0.232 NA
HETATM   24  C7  NAG B   2       9.591  24.678  29.360  1.00 36.27     0.252 C 
HETATM   25  O7  NAG B   2       9.533  23.531  29.423  1.00 77.29    -0.271 OA
HETATM   26  C8  NAG B   2      10.136  25.538  30.452  1.00 25.48     0.100 C 
ENDBRANCH   2  23
BRANCH   6  27
HETATM   27  C6  NAG B   2       6.770  24.532  23.107  1.00 41.21     0.214 C 
HETATM   28  O6  NAG B   2       5.376  24.019  23.383  1.00 29.51    -0.218 OA
ENDBRANCH   6  27
BRANCH   5  29
HETATM   29  O4  NAG B   2       9.486  24.951  23.310  1.00 37.56    -0.327 OA
BRANCH  29  30
HETATM   30  C1  NAG B   3      10.121  26.107  22.698  1.00 31.25     0.262 C 
HETATM   31  C2  NAG B   3       9.905  26.313  21.201  1.00 50.86     0.195 C 
HETATM   32  C3  NAG B   3      10.791  27.412  20.708  1.00 27.28     0.212 C 
HETATM   33  O3  NAG B   3      10.309  27.835  19.417  1.00 49.98    -0.218 OA
HETATM   34  C4  NAG B   3      10.759  28.647  21.658  1.00 62.31     0.214 C 
HETATM   35  O4  NAG B   3      11.918  29.501  21.370  1.00 75.30    -0.218 OA
HETATM   36  C5  NAG B   3      10.829  28.310  23.162  1.00 37.66     0.184 C 
HETATM   37  O5  NAG B   3       9.873  27.293  23.478  1.00 55.96    -0.327 OA
BRANCH  31  38
HETATM   38  N2  NAG B   3      10.286  24.965  20.572  1.00 55.71    -0.232 NA
HETATM   39  C7  NAG B   3       9.429  24.229  19.840  1.00 64.76     0.252 C 
HETATM   40  O7  NAG B   3       8.291  24.402  19.882  1.00 66.12    -0.271 OA
HETATM   41  C8  NAG B   3      10.080  23.205  18.974  1.00 56.03     0.100 C 
ENDBRANCH  31  38
BRANCH  36  42
HETATM   42  C6  NAG B   3      10.452  29.510  24.019  1.00 49.19     0.214 C 
HETATM   43  O6  NAG B   3       9.065  29.924  23.821  1.00 68.92    -0.218 OA
ENDBRANCH  36  42
ENDBRANCH  29  30
ENDBRANCH   5  29
TORSDOF 10
ENDMDL
MODEL 3
REMARK VINA RESULT:    -6.505      2.530      9.010
REMARK INTER + INTRA:         -12.749
REMARK INTER:                 -10.349
REMARK INTRA:                  -2.400
REMARK UNBOUND:                -2.441
REMARK  10 active torsions:
REMARK  status: ('A' for Active; 'I' for Inactive)
REMARK    1  A    between atoms: C2_3  and  N2_4 
REMARK       I    between atoms: N2_4  and  C7_13 
REMARK    2  A    between atoms: C4_7  and  O4_8 
REMARK    3  A    between atoms: O4_8  and  C1_16 
REMARK    4  A    between atoms: C5_9  and  C6_11 
REMARK    5  A    between atoms: C2_17  and  N2_18 
REMARK       I    between atoms: N2_18  and  C7_27 
REMARK    6  A    between atoms: C4_21  and  O4_22 
REMARK    7  A    between atoms: O4_22  and  C1_30 
REMARK    8  A    between atoms: C5_23  and  C6_25 
REMARK    9  A    between atoms: C2_31  and  N2_32 
REMARK       I    between atoms: N2_32  and  C7_41 
REMARK   10  A    between atoms: C5_37  and  C6_39 
ROOT
HETATM    1  C1  NAG B   2       4.843  26.106  30.139  1.00 24.54     0.262 C 
HETATM    2  C2  NAG B   2       3.609  25.864  29.083  1.00 38.18     0.195 C 
HETATM    3  C3  NAG B   2       3.989  24.676  28.144  1.00 40.28     0.209 C 
HETATM    4  O3  NAG B   2       2.983  24.554  27.125  1.00 44.52    -0.218 OA
HETATM    5  C4  NAG B   2       5.398  25.085  27.579  1.00 31.56     0.180 C 
HETATM    6  C5  NAG B   2       6.499  25.247  28.737  1.00 25.00     0.180 C 
HETATM    7  O5  NAG B   2       6.099  26.480  29.456  1.00 56.77    -0.327 OA
ENDROOT
BRANCH   1   8
HETATM    8  O4  NAG B   1       4.480  27.212  31.047  1.00 46.30    -0.327 OA
BRANCH   8   9
HETATM    9  C4  NAG B   1       5.105  28.654  31.002  1.00 41.63     0.180 C 
HETATM   10  C3  NAG B   1       4.091  29.517  30.172  1.00 14.31     0.209 C 
HETATM   11  C2  NAG B   1       4.406  30.981  30.400  1.00 29.05     0.198 C 
HETATM   12  O3  NAG B   1       4.237  29.125  28.800  1.00 28.14    -0.218 OA
HETATM   13  C1  NAG B   1       4.521  31.259  31.920  1.00 32.10     0.295 C 
HETATM   14  O1  NAG B   1       4.840  32.642  32.020  1.00 46.64    -0.188 OA
HETATM   15  O5  NAG B   1       5.746  30.558  32.369  1.00 32.95    -0.325 OA
HETATM   16  C5  NAG B   1       5.414  29.121  32.433  1.00 38.82     0.181 C 
BRANCH  11  17
HETATM   17  N2  NAG B   1       3.366  31.857  29.824  1.00 30.31    -0.232 NA
HETATM   18  C7  NAG B   1       3.505  32.518  28.648  1.00 19.61     0.252 C 
HETATM   19  O7  NAG B   1       4.478  32.457  28.047  1.00 24.37    -0.271 OA
HETATM   20  C8  NAG B   1       2.298  33.289  28.250  1.00 14.43     0.100 C 
ENDBRANCH  11  17
BRANCH  16  21
HETATM   21  C6  NAG B   1       6.604  28.424  33.044  1.00 50.43     0.214 C 
HETATM   22  O6  NAG B   1       7.603  27.951  32.025  1.00 38.95    -0.218 OA
ENDBRANCH  16  21
ENDBRANCH   8   9
ENDBRANCH   1   8
BRANCH   2  23
HETATM   23  N2  NAG B   2       2.350  25.542  29.762  1.00 47.13    -0.232 NA
HETATM   24  C7  NAG B   2       1.282  26.376  29.822  1.00 36.27     0.252 C 
HETATM   25  O7  NAG B   2       1.322  27.445  29.401  1.00 77.29    -0.271 OA
HETATM   26  C8  NAG B   2       0.069  25.788  30.465  1.00 25.48     0.100 C 
ENDBRANCH   2  23
BRANCH   6  27
HETATM   27  C6  NAG B   2       7.859  25.453  28.129  1.00 41.21     0.214 C 
HETATM   28  O6  NAG B   2       7.947  26.913  27.748  1.00 29.51    -0.218 OA
ENDBRANCH   6  27
BRANCH   5  29
HETATM   29  O4  NAG B   2       5.961  24.128  26.634  1.00 37.56    -0.327 OA
BRANCH  29  30
HETATM   30  C1  NAG B   3       6.332  24.088  25.229  1.00 31.25     0.262 C 
HETATM   31  C2  NAG B   3       5.198  24.042  24.208  1.00 50.86     0.195 C 
HETATM   32  C3  NAG B   3       5.757  23.793  22.843  1.00 27.28     0.212 C 
HETATM   33  O3  NAG B   3       4.743  24.125  21.874  1.00 49.98    -0.218 OA
HETATM   34  C4  NAG B   3       7.002  24.686  22.558  1.00 62.31     0.214 C 
HETATM   35  O4  NAG B   3       7.738  24.129  21.417  1.00 75.30    -0.218 OA
HETATM   36  C5  NAG B   3       8.009  24.784  23.722  1.00 37.66     0.184 C 
HETATM   37  O5  NAG B   3       7.322  25.094  24.938  1.00 55.96    -0.327 OA
BRANCH  31  38
HETATM   38  N2  NAG B   3       4.315  22.874  24.671  1.00 55.71    -0.232 NA
HETATM   39  C7  NAG B   3       2.999  22.797  24.400  1.00 64.76     0.252 C 
HETATM   40  O7  NAG B   3       2.393  23.720  24.072  1.00 66.12    -0.271 OA
HETATM   41  C8  NAG B   3       2.418  21.432  24.541  1.00 56.03     0.100 C 
ENDBRANCH  31  38
BRANCH  36  42
HETATM   42  C6  NAG B   3       8.999  25.920  23.506  1.00 49.19     0.214 C 
HETATM   43  O6  NAG B   3       9.206  26.716  24.713  1.00 68.92    -0.218 OA
ENDBRANCH  36  42
ENDBRANCH  29  30
ENDBRANCH   5  29
TORSDOF 10
ENDMDL
MODEL 4
REMARK VINA RESULT:    -6.426      2.335     10.033
REMARK INTER + INTRA:         -12.623
REMARK INTER:                 -10.237
REMARK INTRA:                  -2.387
REMARK UNBOUND:                -2.441
REMARK  10 active torsions:
REMARK  status: ('A' for Active; 'I' for Inactive)
REMARK    1  A    between atoms: C2_3  and  N2_4 
REMARK       I    between atoms: N2_4  and  C7_13 
REMARK    2  A    between atoms: C4_7  and  O4_8 
REMARK    3  A    between atoms: O4_8  and  C1_16 
REMARK    4  A    between atoms: C5_9  and  C6_11 
REMARK    5  A    between atoms: C2_17  and  N2_18 
REMARK       I    between atoms: N2_18  and  C7_27 
REMARK    6  A    between atoms: C4_21  and  O4_22 
REMARK    7  A    between atoms: O4_22  and  C1_30 
REMARK    8  A    between atoms: C5_23  and  C6_25 
REMARK    9  A    between atoms: C2_31  and  N2_32 
REMARK       I    between atoms: N2_32  and  C7_41 
REMARK   10  A    between atoms: C5_37  and  C6_39 
ROOT
HETATM    1  C1  NAG B   2       7.621  24.828  25.405  1.00 24.54     0.262 C 
HETATM    2  C2  NAG B   2       9.247  25.034  25.511  1.00 38.18     0.195 C 
HETATM    3  C3  NAG B   2       9.713  25.909  24.305  1.00 40.28     0.209 C 
HETATM    4  O3  NAG B   2      11.149  25.970  24.308  1.00 44.52    -0.218 OA
HETATM    5  C4  NAG B   2       9.128  25.159  23.054  1.00 31.56     0.180 C 
HETATM    6  C5  NAG B   2       7.524  25.075  23.086  1.00 25.00     0.180 C 
HETATM    7  O5  NAG B   2       7.227  24.112  24.174  1.00 56.77    -0.327 OA
ENDROOT
BRANCH   1   8
HETATM    8  O4  NAG B   1       7.168  24.023  26.557  1.00 46.30    -0.327 OA
BRANCH   8   9
HETATM    9  C4  NAG B   1       5.949  24.382  27.481  1.00 41.63     0.180 C 
HETATM   10  C3  NAG B   1       6.390  25.668  28.264  1.00 14.31     0.209 C 
HETATM   11  C2  NAG B   1       5.160  26.303  28.880  1.00 29.05     0.198 C 
HETATM   12  O3  NAG B   1       7.348  25.249  29.246  1.00 28.14    -0.218 OA
HETATM   13  C1  NAG B   1       4.056  26.452  27.803  1.00 32.10     0.295 C 
HETATM   14  O1  NAG B   1       2.949  27.029  28.486  1.00 46.64    -0.188 OA
HETATM   15  O5  NAG B   1       3.619  25.075  27.475  1.00 32.95    -0.325 OA
HETATM   16  C5  NAG B   1       4.675  24.486  26.628  1.00 38.82     0.181 C 
BRANCH  11  17
HETATM   17  N2  NAG B   1       5.462  27.629  29.453  1.00 30.31    -0.232 NA
HETATM   18  C7  NAG B   1       5.509  27.881  30.785  1.00 19.61     0.252 C 
HETATM   19  O7  NAG B   1       5.274  27.062  31.550  1.00 24.37    -0.271 OA
HETATM   20  C8  NAG B   1       5.891  29.279  31.115  1.00 14.43     0.100 C 
ENDBRANCH  11  17
BRANCH  16  21
HETATM   21  C6  NAG B   1       4.161  23.147  26.159  1.00 50.43     0.214 C 
HETATM   22  O6  NAG B   1       4.298  22.945  24.676  1.00 38.95    -0.218 OA
ENDBRANCH  16  21
ENDBRANCH   8   9
ENDBRANCH   1   8
BRANCH   2  23
HETATM   23  N2  NAG B   2       9.643  25.700  26.756  1.00 47.13    -0.232 NA
HETATM   24  C7  NAG B   2      10.462  25.151  27.687  1.00 36.27     0.252 C 
HETATM   25  O7  NAG B   2      10.846  24.071  27.596  1.00 77.29    -0.271 OA
HETATM   26  C8  NAG B   2      10.819  26.060  28.817  1.00 25.48     0.100 C 
ENDBRANCH   2  23
BRANCH   6  27
HETATM   27  C6  NAG B   2       7.012  24.519  21.786  1.00 41.21     0.214 C 
HETATM   28  O6  NAG B   2       5.503  24.536  21.872  1.00 29.51    -0.218 OA
ENDBRANCH   6  27
BRANCH   5  29
HETATM   29  O4  NAG B   2       9.462  25.780  21.778  1.00 37.56    -0.327 OA
BRANCH  29  30
HETATM   30  C1  NAG B   3      10.656  26.153  21.038  1.00 31.25     0.262 C 
HETATM   31  C2  NAG B   3      10.549  26.202  19.516  1.00 50.86     0.195 C 
HETATM   32  C3  NAG B   3      11.907  26.394  18.920  1.00 27.28     0.212 C 
HETATM   33  O3  NAG B   3      11.743  26.808  17.549  1.00 49.98    -0.218 OA
HETATM   34  C4  NAG B   3      12.712  27.503  19.662  1.00 62.31     0.214 C 
HETATM   35  O4  NAG B   3      14.134  27.369  19.324  1.00 75.30    -0.218 OA
HETATM   36  C5  NAG B   3      12.622  27.448  21.201  1.00 37.66     0.184 C 
HETATM   37  O5  NAG B   3      11.255  27.335  21.606  1.00 55.96    -0.327 OA
BRANCH  31  38
HETATM   38  N2  NAG B   3       9.958  24.838  19.132  1.00 55.71    -0.232 NA
HETATM   39  C7  NAG B   3       9.061  24.681  18.140  1.00 64.76     0.252 C 
HETATM   40  O7  NAG B   3       8.460  25.569  17.720  1.00 66.12    -0.271 OA
HETATM   41  C8  NAG B   3       8.937  23.284  17.637  1.00 56.03     0.100 C 
ENDBRANCH  31  38
BRANCH  36  42
HETATM   42  C6  NAG B   3      13.135  28.735  21.833  1.00 49.19     0.214 C 
HETATM   43  O6  NAG B   3      12.620  28.935  23.185  1.00 68.92    -0.218 OA
ENDBRANCH  36  42
ENDBRANCH  29  30
ENDBRANCH   5  29
TORSDOF 10
ENDMDL
MODEL 5
REMARK VINA RESULT:    -6.413      2.315     10.066
REMARK INTER + INTRA:         -12.602
REMARK INTER:                 -10.203
REMARK INTRA:                  -2.399
REMARK UNBOUND:                -2.441
REMARK  10 active torsions:
REMARK  status: ('A' for Active; 'I' for Inactive)
REMARK    1  A    between atoms: C2_3  and  N2_4 
REMARK       I    between atoms: N2_4  and  C7_13 
REMARK    2  A    between atoms: C4_7  and  O4_8 
REMARK    3  A    between atoms: O4_8  and  C1_16 
REMARK    4  A    between atoms: C5_9  and  C6_11 
REMARK    5  A    between atoms: C2_17  and  N2_18 
REMARK       I    between atoms: N2_18  and  C7_27 
REMARK    6  A    between atoms: C4_21  and  O4_22 
REMARK    7  A    between atoms: O4_22  and  C1_30 
REMARK    8  A    between atoms: C5_23  and  C6_25 
REMARK    9  A    between atoms: C2_31  and  N2_32 
REMARK       I    between atoms: N2_32  and  C7_41 
REMARK   10  A    between atoms: C5_37  and  C6_39 
ROOT
HETATM    1  C1  NAG B   2       7.584  24.902  25.459  1.00 24.54     0.262 C 
HETATM    2  C2  NAG B   2       9.213  25.058  25.599  1.00 38.18     0.195 C 
HETATM    3  C3  NAG B   2       9.716  26.003  24.462  1.00 40.28     0.209 C 
HETATM    4  O3  NAG B   2      11.153  26.027  24.487  1.00 44.52    -0.218 OA
HETATM    5  C4  NAG B   2       9.130  25.357  23.155  1.00 31.56     0.180 C 
HETATM    6  C5  NAG B   2       7.524  25.312  23.162  1.00 25.00     0.180 C 
HETATM    7  O5  NAG B   2       7.189  24.284  24.176  1.00 56.77    -0.327 OA
ENDROOT
BRANCH   1   8
HETATM    8  O4  NAG B   1       7.096  24.029  26.546  1.00 46.30    -0.327 OA
BRANCH   8   9
HETATM    9  C4  NAG B   1       5.887  24.364  27.493  1.00 41.63     0.180 C 
HETATM   10  C3  NAG B   1       6.325  25.649  28.280  1.00 14.31     0.209 C 
HETATM   11  C2  NAG B   1       5.097  26.262  28.923  1.00 29.05     0.198 C 
HETATM   12  O3  NAG B   1       7.305  25.234  29.242  1.00 28.14    -0.218 OA
HETATM   13  C1  NAG B   1       3.973  26.405  27.865  1.00 32.10     0.295 C 
HETATM   14  O1  NAG B   1       2.870  26.961  28.571  1.00 46.64    -0.188 OA
HETATM   15  O5  NAG B   1       3.549  25.026  27.532  1.00 32.95    -0.325 OA
HETATM   16  C5  NAG B   1       4.598  24.458  26.663  1.00 38.82     0.181 C 
BRANCH  11  17
HETATM   17  N2  NAG B   1       5.390  27.587  29.502  1.00 30.31    -0.232 NA
HETATM   18  C7  NAG B   1       5.441  27.832  30.835  1.00 19.61     0.252 C 
HETATM   19  O7  NAG B   1       5.216  27.007  31.596  1.00 24.37    -0.271 OA
HETATM   20  C8  NAG B   1       5.813  29.231  31.172  1.00 14.43     0.100 C 
ENDBRANCH  11  17
BRANCH  16  21
HETATM   21  C6  NAG B   1       4.094  23.116  26.190  1.00 50.43     0.214 C 
HETATM   22  O6  NAG B   1       4.356  22.864  24.732  1.00 38.95    -0.218 OA
ENDBRANCH  16  21
ENDBRANCH   8   9
ENDBRANCH   1   8
BRANCH   2  23
HETATM   23  N2  NAG B   2       9.608  25.625  26.892  1.00 47.13    -0.232 NA
HETATM   24  C7  NAG B   2      10.450  25.018  27.764  1.00 36.27     0.252 C 
HETATM   25  O7  NAG B   2      10.857  23.959  27.578  1.00 77.29    -0.271 OA
HETATM   26  C8  NAG B   2      10.800  25.837  28.964  1.00 25.48     0.100 C 
ENDBRANCH   2  23
BRANCH   6  27
HETATM   27  C6  NAG B   2       7.016  24.861  21.820  1.00 41.21     0.214 C 
HETATM   28  O6  NAG B   2       5.548  24.549  21.995  1.00 29.51    -0.218 OA
ENDBRANCH   6  27
BRANCH   5  29
HETATM   29  O4  NAG B   2       9.496  26.057  21.930  1.00 37.56    -0.327 OA
BRANCH  29  30
HETATM   30  C1  NAG B   3      10.303  25.812  20.745  1.00 31.25     0.262 C 
HETATM   31  C2  NAG B   3      11.816  25.945  20.892  1.00 50.86     0.195 C 
HETATM   32  C3  NAG B   3      12.463  25.868  19.545  1.00 27.28     0.212 C 
HETATM   33  O3  NAG B   3      13.870  25.618  19.735  1.00 49.98    -0.218 OA
HETATM   34  C4  NAG B   3      11.881  24.701  18.692  1.00 62.31     0.214 C 
HETATM   35  O4  NAG B   3      12.233  24.917  17.283  1.00 75.30    -0.218 OA
HETATM   36  C5  NAG B   3      10.345  24.566  18.742  1.00 37.66     0.184 C 
HETATM   37  O5  NAG B   3       9.897  24.589  20.101  1.00 55.96    -0.327 OA
BRANCH  31  38
HETATM   38  N2  NAG B   3      12.018  27.327  21.529  1.00 55.71    -0.232 NA
HETATM   39  C7  NAG B   3      13.095  27.642  22.273  1.00 64.76     0.252 C 
HETATM   40  O7  NAG B   3      13.777  26.832  22.725  1.00 66.12    -0.271 OA
HETATM   41  C8  NAG B   3      13.327  29.105  22.434  1.00 56.03     0.100 C 
ENDBRANCH  31  38
BRANCH  36  42
HETATM   42  C6  NAG B   3       9.886  23.228  18.179  1.00 49.19     0.214 C 
HETATM   43  O6  NAG B   3       8.669  23.347  17.380  1.00 68.92    -0.218 OA
ENDBRANCH  36  42
ENDBRANCH  29  30
ENDBRANCH   5  29
TORSDOF 10
ENDMDL
MODEL 6
REMARK VINA RESULT:    -6.339      2.197      4.193
REMARK INTER + INTRA:         -12.486
REMARK INTER:                 -10.548
REMARK INTRA:                  -1.938
REMARK UNBOUND:                -2.441
REMARK  10 active torsions:
REMARK  status: ('A' for Active; 'I' for Inactive)
REMARK    1  A    between atoms: C2_3  and  N2_4 
REMARK       I    between atoms: N2_4  and  C7_13 
REMARK    2  A    between atoms: C4_7  and  O4_8 
REMARK    3  A    between atoms: O4_8  and  C1_16 
REMARK    4  A    between atoms: C5_9  and  C6_11 
REMARK    5  A    between atoms: C2_17  and  N2_18 
REMARK       I    between atoms: N2_18  and  C7_27 
REMARK    6  A    between atoms: C4_21  and  O4_22 
REMARK    7  A    between atoms: O4_22  and  C1_30 
REMARK    8  A    between atoms: C5_23  and  C6_25 
REMARK    9  A    between atoms: C2_31  and  N2_32 
REMARK       I    between atoms: N2_32  and  C7_41 
REMARK   10  A    between atoms: C5_37  and  C6_39 
ROOT
HETATM    1  C1  NAG B   2       6.630  25.665  25.478  1.00 24.54     0.262 C 
HETATM    2  C2  NAG B   2       6.149  27.136  26.030  1.00 38.18     0.195 C 
HETATM    3  C3  NAG B   2       5.855  27.016  27.559  1.00 40.28     0.209 C 
HETATM    4  O3  NAG B   2       5.294  28.257  28.018  1.00 44.52    -0.218 OA
HETATM    5  C4  NAG B   2       4.850  25.810  27.650  1.00 31.56     0.180 C 
HETATM    6  C5  NAG B   2       5.486  24.441  27.103  1.00 25.00     0.180 C 
HETATM    7  O5  NAG B   2       5.580  24.638  25.636  1.00 56.77    -0.327 OA
ENDROOT
BRANCH   1   8
HETATM    8  O4  NAG B   1       6.935  25.776  24.038  1.00 46.30    -0.327 OA
BRANCH   8   9
HETATM    9  C4  NAG B   1       8.250  25.253  23.354  1.00 41.63     0.180 C 
HETATM   10  C3  NAG B   1       7.832  24.878  21.889  1.00 14.31     0.209 C 
HETATM   11  C2  NAG B   1       9.087  24.733  21.053  1.00 29.05     0.198 C 
HETATM   12  O3  NAG B   1       7.076  23.661  21.971  1.00 28.14    -0.218 OA
HETATM   13  C1  NAG B   1       9.993  25.973  21.254  1.00 32.10     0.295 C 
HETATM   14  O1  NAG B   1      11.142  25.726  20.452  1.00 46.64    -0.188 OA
HETATM   15  O5  NAG B   1      10.485  25.895  22.649  1.00 32.95    -0.325 OA
HETATM   16  C5  NAG B   1       9.362  26.299  23.518  1.00 38.82     0.181 C 
BRANCH  11  17
HETATM   17  N2  NAG B   1       8.770  24.591  19.618  1.00 30.31    -0.232 NA
HETATM   18  C7  NAG B   1       9.236  23.583  18.840  1.00 19.61     0.252 C 
HETATM   19  O7  NAG B   1       9.949  22.792  19.262  1.00 24.37    -0.271 OA
HETATM   20  C8  NAG B   1       8.731  23.623  17.443  1.00 14.43     0.100 C 
ENDBRANCH  11  17
BRANCH  16  21
HETATM   21  C6  NAG B   1       9.905  26.378  24.924  1.00 50.43     0.214 C 
HETATM   22  O6  NAG B   1      11.405  26.308  24.986  1.00 38.95    -0.218 OA
ENDBRANCH  16  21
ENDBRANCH   8   9
ENDBRANCH   1   8
BRANCH   2  23
HETATM   23  N2  NAG B   2       7.172  28.167  25.828  1.00 47.13    -0.232 NA
HETATM   24  C7  NAG B   2       7.002  29.266  25.052  1.00 36.27     0.252 C 
HETATM   25  O7  NAG B   2       6.052  29.425  24.424  1.00 77.29    -0.271 OA
HETATM   26  C8  NAG B   2       8.138  30.236  25.089  1.00 25.48     0.100 C 
ENDBRANCH   2  23
BRANCH   6  27
HETATM   27  C6  NAG B   2       4.557  23.293  27.385  1.00 41.21     0.214 C 
HETATM   28  O6  NAG B   2       3.719  23.097  26.142  1.00 29.51    -0.218 OA
ENDBRANCH   6  27
BRANCH   5  29
HETATM   29  O4  NAG B   2       4.395  25.517  29.004  1.00 37.56    -0.327 OA
BRANCH  29  30
HETATM   30  C1  NAG B   3       3.339  25.948  29.905  1.00 31.25     0.262 C 
HETATM   31  C2  NAG B   3       3.557  27.254  30.664  1.00 50.86     0.195 C 
HETATM   32  C3  NAG B   3       2.481  27.430  31.688  1.00 27.28     0.212 C 
HETATM   33  O3  NAG B   3       2.487  28.807  32.116  1.00 49.98    -0.218 OA
HETATM   34  C4  NAG B   3       1.071  27.118  31.102  1.00 62.31     0.214 C 
HETATM   35  O4  NAG B   3       0.131  26.904  32.209  1.00 75.30    -0.218 OA
HETATM   36  C5  NAG B   3       1.002  25.854  30.221  1.00 37.66     0.184 C 
HETATM   37  O5  NAG B   3       2.055  25.875  29.253  1.00 55.96    -0.327 OA
BRANCH  31  38
HETATM   38  N2  NAG B   3       4.933  27.086  31.324  1.00 55.71    -0.232 NA
HETATM   39  C7  NAG B   3       5.754  28.121  31.582  1.00 64.76     0.252 C 
HETATM   40  O7  NAG B   3       5.621  29.143  31.069  1.00 66.12    -0.271 OA
HETATM   41  C8  NAG B   3       6.815  27.830  32.588  1.00 56.03     0.100 C 
ENDBRANCH  31  38
BRANCH  36  42
HETATM   42  C6  NAG B   3      -0.293  25.804  29.421  1.00 49.19     0.214 C 
HETATM   43  O6  NAG B   3      -0.973  27.096  29.381  1.00 68.92    -0.218 OA
ENDBRANCH  36  42
ENDBRANCH  29  30
ENDBRANCH   5  29
TORSDOF 10
ENDMDL
MODEL 7
REMARK VINA RESULT:    -6.309      2.379      9.925
REMARK INTER + INTRA:         -12.439
REMARK INTER:                 -10.129
REMARK INTRA:                  -2.309
REMARK UNBOUND:                -2.441
REMARK  10 active torsions:
REMARK  status: ('A' for Active; 'I' for Inactive)
REMARK    1  A    between atoms: C2_3  and  N2_4 
REMARK       I    between atoms: N2_4  and  C7_13 
REMARK    2  A    between atoms: C4_7  and  O4_8 
REMARK    3  A    between atoms: O4_8  and  C1_16 
REMARK    4  A    between atoms: C5_9  and  C6_11 
REMARK    5  A    between atoms: C2_17  and  N2_18 
REMARK       I    between atoms: N2_18  and  C7_27 
REMARK    6  A    between atoms: C4_21  and  O4_22 
REMARK    7  A    between atoms: O4_22  and  C1_30 
REMARK    8  A    between atoms: C5_23  and  C6_25 
REMARK    9  A    between atoms: C2_31  and  N2_32 
REMARK       I    between atoms: N2_32  and  C7_41 
REMARK   10  A    between atoms: C5_37  and  C6_39 
ROOT
HETATM    1  C1  NAG B   2       7.267  25.635  27.050  1.00 24.54     0.262 C 
HETATM    2  C2  NAG B   2       8.757  24.978  27.260  1.00 38.18     0.195 C 
HETATM    3  C3  NAG B   2       9.635  25.338  26.021  1.00 40.28     0.209 C 
HETATM    4  O3  NAG B   2      10.889  24.645  26.128  1.00 44.52    -0.218 OA
HETATM    5  C4  NAG B   2       8.767  24.863  24.800  1.00 31.56     0.180 C 
HETATM    6  C5  NAG B   2       7.357  25.627  24.717  1.00 25.00     0.180 C 
HETATM    7  O5  NAG B   2       6.579  25.092  25.860  1.00 56.77    -0.327 OA
ENDROOT
BRANCH   1   8
HETATM    8  O4  NAG B   1       6.438  25.320  28.230  1.00 46.30    -0.327 OA
BRANCH   8   9
HETATM    9  C4  NAG B   1       5.546  26.357  29.004  1.00 41.63     0.180 C 
HETATM   10  C3  NAG B   1       4.085  25.790  28.916  1.00 14.31     0.209 C 
HETATM   11  C2  NAG B   1       3.229  26.502  29.943  1.00 29.05     0.198 C 
HETATM   12  O3  NAG B   1       3.635  26.008  27.572  1.00 28.14    -0.218 OA
HETATM   13  C1  NAG B   1       3.938  26.474  31.321  1.00 32.10     0.295 C 
HETATM   14  O1  NAG B   1       3.070  27.183  32.198  1.00 46.64    -0.188 OA
HETATM   15  O5  NAG B   1       5.128  27.345  31.185  1.00 32.95    -0.325 OA
HETATM   16  C5  NAG B   1       6.125  26.582  30.409  1.00 38.82     0.181 C 
BRANCH  11  17
HETATM   17  N2  NAG B   1       1.898  25.877  30.069  1.00 30.31    -0.232 NA
HETATM   18  C7  NAG B   1       0.735  26.527  29.817  1.00 19.61     0.252 C 
HETATM   19  O7  NAG B   1       0.727  27.633  29.522  1.00 24.37    -0.271 OA
HETATM   20  C8  NAG B   1      -0.471  25.669  29.956  1.00 14.43     0.100 C 
ENDBRANCH  11  17
BRANCH  16  21
HETATM   21  C6  NAG B   1       7.394  27.398  30.407  1.00 50.43     0.214 C 
HETATM   22  O6  NAG B   1       7.423  28.449  29.332  1.00 38.95    -0.218 OA
ENDBRANCH  16  21
ENDBRANCH   8   9
ENDBRANCH   1   8
BRANCH   2  23
HETATM   23  N2  NAG B   2       9.421  25.480  28.468  1.00 47.13    -0.232 NA
HETATM   24  C7  NAG B   2       9.754  24.706  29.531  1.00 36.27     0.252 C 
HETATM   25  O7  NAG B   2       9.462  23.596  29.589  1.00 77.29    -0.271 OA
HETATM   26  C8  NAG B   2      10.527  25.412  30.596  1.00 25.48     0.100 C 
ENDBRANCH   2  23
BRANCH   6  27
HETATM   27  C6  NAG B   2       6.653  25.273  23.436  1.00 41.21     0.214 C 
HETATM   28  O6  NAG B   2       6.242  23.824  23.554  1.00 29.51    -0.218 OA
ENDBRANCH   6  27
BRANCH   5  29
HETATM   29  O4  NAG B   2       9.400  25.069  23.503  1.00 37.56    -0.327 OA
BRANCH  29  30
HETATM   30  C1  NAG B   3      10.196  26.089  22.840  1.00 31.25     0.262 C 
HETATM   31  C2  NAG B   3       9.996  26.264  21.337  1.00 50.86     0.195 C 
HETATM   32  C3  NAG B   3      11.033  27.195  20.793  1.00 27.28     0.212 C 
HETATM   33  O3  NAG B   3      10.606  27.632  19.488  1.00 49.98    -0.218 OA
HETATM   34  C4  NAG B   3      11.201  28.458  21.690  1.00 62.31     0.214 C 
HETATM   35  O4  NAG B   3      12.472  29.113  21.361  1.00 75.30    -0.218 OA
HETATM   36  C5  NAG B   3      11.235  28.175  23.207  1.00 37.66     0.184 C 
HETATM   37  O5  NAG B   3      10.141  27.330  23.571  1.00 55.96    -0.327 OA
BRANCH  31  38
HETATM   38  N2  NAG B   3      10.161  24.849  20.763  1.00 55.71    -0.232 NA
HETATM   39  C7  NAG B   3       9.338  24.335  19.830  1.00 64.76     0.252 C 
HETATM   40  O7  NAG B   3       8.301  24.791  19.619  1.00 66.12    -0.271 OA
HETATM   41  C8  NAG B   3       9.891  23.161  19.098  1.00 56.03     0.100 C 
ENDBRANCH  31  38
BRANCH  36  42
HETATM   42  C6  NAG B   3      11.056  29.453  24.014  1.00 49.19     0.214 C 
HETATM   43  O6  NAG B   3       9.947  29.364  24.961  1.00 68.92    -0.218 OA
ENDBRANCH  36  42
ENDBRANCH  29  30
ENDBRANCH   5  29
TORSDOF 10
ENDMDL
MODEL 8
REMARK VINA RESULT:    -6.299      2.029     10.084
REMARK INTER + INTRA:         -12.422
REMARK INTER:                 -10.776
REMARK INTRA:                  -1.646
REMARK UNBOUND:                -2.441
REMARK  10 active torsions:
REMARK  status: ('A' for Active; 'I' for Inactive)
REMARK    1  A    between atoms: C2_3  and  N2_4 
REMARK       I    between atoms: N2_4  and  C7_13 
REMARK    2  A    between atoms: C4_7  and  O4_8 
REMARK    3  A    between atoms: O4_8  and  C1_16 
REMARK    4  A    between atoms: C5_9  and  C6_11 
REMARK    5  A    between atoms: C2_17  and  N2_18 
REMARK       I    between atoms: N2_18  and  C7_27 
REMARK    6  A    between atoms: C4_21  and  O4_22 
REMARK    7  A    between atoms: O4_22  and  C1_30 
REMARK    8  A    between atoms: C5_23  and  C6_25 
REMARK    9  A    between atoms: C2_31  and  N2_32 
REMARK       I    between atoms: N2_32  and  C7_41 
REMARK   10  A    between atoms: C5_37  and  C6_39 
ROOT
HETATM    1  C1  NAG B   2       7.077  26.517  25.339  1.00 24.54     0.262 C 
HETATM    2  C2  NAG B   2       6.630  25.458  24.165  1.00 38.18     0.195 C 
HETATM    3  C3  NAG B   2       7.921  24.889  23.496  1.00 40.28     0.209 C 
HETATM    4  O3  NAG B   2       7.538  24.078  22.374  1.00 44.52    -0.218 OA
HETATM    5  C4  NAG B   2       8.724  26.177  23.085  1.00 31.56     0.180 C 
HETATM    6  C5  NAG B   2       9.114  27.086  24.350  1.00 25.00     0.180 C 
HETATM    7  O5  NAG B   2       7.826  27.670  24.796  1.00 56.77    -0.327 OA
ENDROOT
BRANCH   1   8
HETATM    8  O4  NAG B   1       5.861  27.041  25.993  1.00 46.30    -0.327 OA
BRANCH   8   9
HETATM    9  C4  NAG B   1       5.565  26.959  27.535  1.00 41.63     0.180 C 
HETATM   10  C3  NAG B   1       4.011  27.135  27.665  1.00 14.31     0.209 C 
HETATM   11  C2  NAG B   1       3.592  26.691  29.052  1.00 29.05     0.198 C 
HETATM   12  O3  NAG B   1       3.727  28.519  27.416  1.00 28.14    -0.218 OA
HETATM   13  C1  NAG B   1       4.193  25.296  29.356  1.00 32.10     0.295 C 
HETATM   14  O1  NAG B   1       3.762  24.988  30.677  1.00 46.64    -0.188 OA
HETATM   15  O5  NAG B   1       5.655  25.500  29.477  1.00 32.95    -0.325 OA
HETATM   16  C5  NAG B   1       6.173  25.669  28.105  1.00 38.82     0.181 C 
BRANCH  11  17
HETATM   17  N2  NAG B   1       2.122  26.625  29.180  1.00 30.31    -0.232 NA
HETATM   18  C7  NAG B   1       1.387  27.519  29.887  1.00 19.61     0.252 C 
HETATM   19  O7  NAG B   1       1.889  28.370  30.465  1.00 24.37    -0.271 OA
HETATM   20  C8  NAG B   1      -0.077  27.275  29.818  1.00 14.43     0.100 C 
ENDBRANCH  11  17
BRANCH  16  21
HETATM   21  C6  NAG B   1       7.678  25.715  28.209  1.00 50.43     0.214 C 
HETATM   22  O6  NAG B   1       8.288  24.392  28.580  1.00 38.95    -0.218 OA
ENDBRANCH  16  21
ENDBRANCH   8   9
ENDBRANCH   1   8
BRANCH   2  23
HETATM   23  N2  NAG B   2       5.843  24.340  24.696  1.00 47.13    -0.232 NA
HETATM   24  C7  NAG B   2       4.809  23.758  24.041  1.00 36.27     0.252 C 
HETATM   25  O7  NAG B   2       4.421  24.163  23.037  1.00 77.29    -0.271 OA
HETATM   26  C8  NAG B   2       4.233  22.561  24.725  1.00 25.48     0.100 C 
ENDBRANCH   2  23
BRANCH   6  27
HETATM   27  C6  NAG B   2      10.034  28.196  23.923  1.00 41.21     0.214 C 
HETATM   28  O6  NAG B   2      11.324  28.008  24.688  1.00 29.51    -0.218 OA
ENDBRANCH   6  27
BRANCH   5  29
HETATM   29  O4  NAG B   2       9.980  25.900  22.400  1.00 37.56    -0.327 OA
BRANCH  29  30
HETATM   30  C1  NAG B   3      10.461  25.775  21.033  1.00 31.25     0.262 C 
HETATM   31  C2  NAG B   3      11.972  25.749  20.823  1.00 50.86     0.195 C 
HETATM   32  C3  NAG B   3      12.282  25.829  19.362  1.00 27.28     0.212 C 
HETATM   33  O3  NAG B   3      13.653  25.429  19.169  1.00 49.98    -0.218 OA
HETATM   34  C4  NAG B   3      11.381  24.868  18.529  1.00 62.31     0.214 C 
HETATM   35  O4  NAG B   3      11.428  25.272  17.119  1.00 75.30    -0.218 OA
HETATM   36  C5  NAG B   3       9.892  24.863  18.932  1.00 37.66     0.184 C 
HETATM   37  O5  NAG B   3       9.771  24.710  20.350  1.00 55.96    -0.327 OA
BRANCH  31  38
HETATM   38  N2  NAG B   3      12.482  26.989  21.571  1.00 55.71    -0.232 NA
HETATM   39  C7  NAG B   3      13.635  27.004  22.266  1.00 64.76     0.252 C 
HETATM   40  O7  NAG B   3      14.158  26.032  22.595  1.00 66.12    -0.271 OA
HETATM   41  C8  NAG B   3      14.169  28.367  22.546  1.00 56.03     0.100 C 
ENDBRANCH  31  38
BRANCH  36  42
HETATM   42  C6  NAG B   3       9.156  23.677  18.325  1.00 49.19     0.214 C 
HETATM   43  O6  NAG B   3       8.435  22.895  19.327  1.00 68.92    -0.218 OA
ENDBRANCH  36  42
ENDBRANCH  29  30
ENDBRANCH   5  29
TORSDOF 10
ENDMDL
MODEL 9
REMARK VINA RESULT:    -6.122      2.865      9.899
REMARK INTER + INTRA:         -12.141
REMARK INTER:                  -9.621
REMARK INTRA:                  -2.520
REMARK UNBOUND:                -2.441
REMARK  10 active torsions:
REMARK  status: ('A' for Active; 'I' for Inactive)
REMARK    1  A    between atoms: C2_3  and  N2_4 
REMARK       I    between atoms: N2_4  and  C7_13 
REMARK    2  A    between atoms: C4_7  and  O4_8 
REMARK    3  A    between atoms: O4_8  and  C1_16 
REMARK    4  A    between atoms: C5_9  and  C6_11 
REMARK    5  A    between atoms: C2_17  and  N2_18 
REMARK       I    between atoms: N2_18  and  C7_27 
REMARK    6  A    between atoms: C4_21  and  O4_22 
REMARK    7  A    between atoms: O4_22  and  C1_30 
REMARK    8  A    between atoms: C5_23  and  C6_25 
REMARK    9  A    between atoms: C2_31  and  N2_32 
REMARK       I    between atoms: N2_32  and  C7_41 
REMARK   10  A    between atoms: C5_37  and  C6_39 
ROOT
HETATM    1  C1  NAG B   2       3.480  27.669  29.774  1.00 24.54     0.262 C 
HETATM    2  C2  NAG B   2       3.121  26.067  29.736  1.00 38.18     0.195 C 
HETATM    3  C3  NAG B   2       4.270  25.322  28.984  1.00 40.28     0.209 C 
HETATM    4  O3  NAG B   2       3.893  23.945  28.817  1.00 44.52    -0.218 OA
HETATM    5  C4  NAG B   2       4.390  26.102  27.625  1.00 31.56     0.180 C 
HETATM    6  C5  NAG B   2       4.781  27.645  27.836  1.00 25.00     0.180 C 
HETATM    7  O5  NAG B   2       3.563  28.256  28.421  1.00 56.77    -0.327 OA
ENDROOT
BRANCH   1   8
HETATM    8  O4  NAG B   1       2.411  28.377  30.505  1.00 46.30    -0.327 OA
BRANCH   8   9
HETATM    9  C4  NAG B   1       2.646  29.375  31.697  1.00 41.63     0.180 C 
HETATM   10  C3  NAG B   1       2.635  28.485  32.989  1.00 14.31     0.209 C 
HETATM   11  C2  NAG B   1       3.229  29.285  34.130  1.00 29.05     0.198 C 
HETATM   12  O3  NAG B   1       1.271  28.111  33.225  1.00 28.14    -0.218 OA
HETATM   13  C1  NAG B   1       4.578  29.903  33.685  1.00 32.10     0.295 C 
HETATM   14  O1  NAG B   1       5.033  30.646  34.811  1.00 46.64    -0.188 OA
HETATM   15  O5  NAG B   1       4.241  30.929  32.671  1.00 32.95    -0.325 OA
HETATM   16  C5  NAG B   1       3.912  30.203  31.428  1.00 38.82     0.181 C 
BRANCH  11  17
HETATM   17  N2  NAG B   1       3.450  28.446  35.324  1.00 30.31    -0.232 NA
HETATM   18  C7  NAG B   1       2.659  28.481  36.425  1.00 19.61     0.252 C 
HETATM   19  O7  NAG B   1       1.779  29.210  36.498  1.00 24.37    -0.271 OA
HETATM   20  C8  NAG B   1       3.049  27.501  37.473  1.00 14.43     0.100 C 
ENDBRANCH  11  17
BRANCH  16  21
HETATM   21  C6  NAG B   1       3.727  31.243  30.351  1.00 50.43     0.214 C 
HETATM   22  O6  NAG B   1       3.568  32.637  30.892  1.00 38.95    -0.218 OA
ENDBRANCH  16  21
ENDBRANCH   8   9
ENDBRANCH   1   8
BRANCH   2  23
HETATM   23  N2  NAG B   2       2.989  25.494  31.079  1.00 47.13    -0.232 NA
HETATM   24  C7  NAG B   2       1.805  25.172  31.657  1.00 36.27     0.252 C 
HETATM   25  O7  NAG B   2       0.800  25.405  31.151  1.00 77.29    -0.271 OA
HETATM   26  C8  NAG B   2       1.924  24.494  32.983  1.00 25.48     0.100 C 
ENDBRANCH   2  23
BRANCH   6  27
HETATM   27  C6  NAG B   2       5.065  28.291  26.508  1.00 41.21     0.214 C 
HETATM   28  O6  NAG B   2       6.530  28.663  26.512  1.00 29.51    -0.218 OA
ENDBRANCH   6  27
BRANCH   5  29
HETATM   29  O4  NAG B   2       5.398  25.564  26.718  1.00 37.56    -0.327 OA
BRANCH  29  30
HETATM   30  C1  NAG B   3       6.767  25.081  26.789  1.00 31.25     0.262 C 
HETATM   31  C2  NAG B   3       7.616  25.199  25.526  1.00 50.86     0.195 C 
HETATM   32  C3  NAG B   3       8.909  24.470  25.716  1.00 27.28     0.212 C 
HETATM   33  O3  NAG B   3       9.824  24.902  24.690  1.00 49.98    -0.218 OA
HETATM   34  C4  NAG B   3       9.553  24.791  27.098  1.00 62.31     0.214 C 
HETATM   35  O4  NAG B   3      10.565  23.771  27.402  1.00 75.30    -0.218 OA
HETATM   36  C5  NAG B   3       8.569  24.796  28.286  1.00 37.66     0.184 C 
HETATM   37  O5  NAG B   3       7.423  25.591  27.967  1.00 55.96    -0.327 OA
BRANCH  31  38
HETATM   38  N2  NAG B   3       6.762  24.544  24.431  1.00 55.71    -0.232 NA
HETATM   39  C7  NAG B   3       6.200  25.240  23.425  1.00 64.76     0.252 C 
HETATM   40  O7  NAG B   3       6.069  26.383  23.478  1.00 66.12    -0.271 OA
HETATM   41  C8  NAG B   3       5.792  24.412  22.255  1.00 56.03     0.100 C 
ENDBRANCH  31  38
BRANCH  36  42
HETATM   42  C6  NAG B   3       9.189  25.441  29.518  1.00 49.19     0.214 C 
HETATM   43  O6  NAG B   3       8.215  26.198  30.300  1.00 68.92    -0.218 OA
ENDBRANCH  36  42
ENDBRANCH  29  30
ENDBRANCH   5  29
TORSDOF 10
ENDMDL
