MODEL 1
REMARK VINA RESULT:    -6.982      0.000      0.000
REMARK INTER + INTRA:         -13.423
REMARK INTER:                 -11.063
REMARK INTRA:                  -2.360
REMARK UNBOUND:                -2.360
REMARK  10 active torsions:
REMARK  status: ('A' for Active; 'I' for Inactive)
REMARK    1  A    between atoms: C2_3  and  N2_4 
REMARK       I    between atoms: N2_4  and  C7_13 
REMARK    2  A    between atoms: C4_7  and  O4_8 
REMARK    3  A    between atoms: O4_8  and  C1_16 
REMARK    4  A    between atoms: C5_9  and  C6_11 
REMARK    5  A    between atoms: C2_17  and  N2_18 
REMARK       I    between atoms: N2_18  and  C7_27 
REMARK    6  A    between atoms: C4_21  and  O4_22 
REMARK    7  A    between atoms: O4_22  and  C1_30 
REMARK    8  A    between atoms: C5_23  and  C6_25 
REMARK    9  A    between atoms: C2_31  and  N2_32 
REMARK       I    between atoms: N2_32  and  C7_41 
REMARK   10  A    between atoms: C5_37  and  C6_39 
ROOT
HETATM    1  C1  NAG B   2       6.867  25.020  25.553  1.00 24.54     0.262 C 
HETATM    2  C2  NAG B   2       5.595  24.146  26.114  1.00 38.18     0.195 C 
HETATM    3  C3  NAG B   2       4.969  24.907  27.325  1.00 40.28     0.209 C 
HETATM    4  O3  NAG B   2       3.952  24.079  27.913  1.00 44.52    -0.218 OA
HETATM    5  C4  NAG B   2       6.193  25.157  28.279  1.00 31.56     0.180 C 
HETATM    6  C5  NAG B   2       7.331  26.057  27.592  1.00 25.00     0.180 C 
HETATM    7  O5  NAG B   2       7.932  25.172  26.566  1.00 56.77    -0.327 OA
ENDROOT
BRANCH   1   8
HETATM    8  O4  NAG B   1       7.449  24.319  24.391  1.00 46.30    -0.327 OA
BRANCH   8   9
HETATM    9  C4  NAG B   1       7.711  24.973  22.986  1.00 41.63     0.180 C 
HETATM   10  C3  NAG B   1       9.230  25.367  22.991  1.00 14.31     0.209 C 
HETATM   11  C2  NAG B   1       9.661  25.644  21.566  1.00 29.05     0.198 C 
HETATM   12  O3  NAG B   1       9.359  26.514  23.843  1.00 28.14    -0.218 OA
HETATM   13  C1  NAG B   1       9.217  24.474  20.651  1.00 32.10     0.295 C 
HETATM   14  O1  NAG B   1       9.646  24.843  19.345  1.00 46.64    -0.188 OA
HETATM   15  O5  NAG B   1       7.739  24.540  20.594  1.00 32.95    -0.325 OA
HETATM   16  C5  NAG B   1       7.242  24.014  21.881  1.00 38.82     0.181 C 
BRANCH  11  17
HETATM   17  N2  NAG B   1      11.124  25.812  21.463  1.00 30.31    -0.232 NA
HETATM   18  C7  NAG B   1      11.725  26.976  21.113  1.00 19.61     0.252 C 
HETATM   19  O7  NAG B   1      11.108  27.900  20.835  1.00 24.37    -0.271 OA
HETATM   20  C8  NAG B   1      13.210  26.913  21.137  1.00 14.43     0.100 C 
ENDBRANCH  11  17
BRANCH  16  21
HETATM   21  C6  NAG B   1       5.739  23.928  21.765  1.00 50.43     0.214 C 
HETATM   22  O6  NAG B   1       5.045  25.227  22.064  1.00 38.95    -0.218 OA
ENDBRANCH  16  21
ENDBRANCH   8   9
ENDBRANCH   1   8
BRANCH   2  23
HETATM   23  N2  NAG B   2       4.559  23.952  25.093  1.00 47.13    -0.232 NA
HETATM   24  C7  NAG B   2       3.801  22.834  24.981  1.00 36.27     0.252 C 
HETATM   25  O7  NAG B   2       3.978  21.912  25.643  1.00 77.29    -0.271 OA
HETATM   26  C8  NAG B   2       2.731  22.910  23.941  1.00 25.48     0.100 C 
ENDBRANCH   2  23
BRANCH   6  27
HETATM   27  C6  NAG B   2       8.383  26.419  28.604  1.00 41.21     0.214 C 
HETATM   28  O6  NAG B   2       8.435  27.929  28.655  1.00 29.51    -0.218 OA
ENDBRANCH   6  27
BRANCH   5  29
HETATM   29  O4  NAG B   2       5.849  25.841  29.520  1.00 37.56    -0.327 OA
BRANCH  29  30
HETATM   30  C1  NAG B   3       4.663  26.382  30.162  1.00 31.25     0.262 C 
HETATM   31  C2  NAG B   3       3.830  27.381  29.364  1.00 50.86     0.195 C 
HETATM   32  C3  NAG B   3       2.783  27.985  30.245  1.00 27.28     0.212 C 
HETATM   33  O3  NAG B   3       1.797  28.618  29.405  1.00 49.98    -0.218 OA
HETATM   34  C4  NAG B   3       2.058  26.905  31.103  1.00 62.31     0.214 C 
HETATM   35  O4  NAG B   3       1.359  27.564  32.212  1.00 75.30    -0.218 OA
HETATM   36  C5  NAG B   3       2.988  25.851  31.738  1.00 37.66     0.184 C 
HETATM   37  O5  NAG B   3       3.878  25.325  30.748  1.00 55.96    -0.327 OA
BRANCH  31  38
HETATM   38  N2  NAG B   3       4.844  28.436  28.898  1.00 55.71    -0.232 NA
HETATM   39  C7  NAG B   3       4.896  28.896  27.634  1.00 64.76     0.252 C 
HETATM   40  O7  NAG B   3       4.400  28.330  26.762  1.00 66.12    -0.271 OA
HETATM   41  C8  NAG B   3       5.622  30.188  27.477  1.00 56.03     0.100 C 
ENDBRANCH  31  38
BRANCH  36  42
HETATM   42  C6  NAG B   3       2.201  24.658  32.261  1.00 49.19     0.214 C 
HETATM   43  O6  NAG B   3       1.888  24.776  33.683  1.00 68.92    -0.218 OA
ENDBRANCH  36  42
ENDBRANCH  29  30
ENDBRANCH   5  29
TORSDOF 10
ENDMDL
MODEL 2
REMARK VINA RESULT:    -6.586      2.654      9.135
REMARK INTER + INTRA:         -12.796
REMARK INTER:                 -10.663
REMARK INTRA:                  -2.133
REMARK UNBOUND:                -2.360
REMARK  10 active torsions:
REMARK  status: ('A' for Active; 'I' for Inactive)
REMARK    1  A    between atoms: C2_3  and  N2_4 
REMARK       I    between atoms: N2_4  and  C7_13 
REMARK    2  A    between atoms: C4_7  and  O4_8 
REMARK    3  A    between atoms: O4_8  and  C1_16 
REMARK    4  A    between atoms: C5_9  and  C6_11 
REMARK    5  A    between atoms: C2_17  and  N2_18 
REMARK       I    between atoms: N2_18  and  C7_27 
REMARK    6  A    between atoms: C4_21  and  O4_22 
REMARK    7  A    between atoms: O4_22  and  C1_30 
REMARK    8  A    between atoms: C5_23  and  C6_25 
REMARK    9  A    between atoms: C2_31  and  N2_32 
REMARK       I    between atoms: N2_32  and  C7_41 
REMARK   10  A    between atoms: C5_37  and  C6_39 
ROOT
HETATM    1  C1  NAG B   2       4.765  26.186  30.126  1.00 24.54     0.262 C 
HETATM    2  C2  NAG B   2       3.560  25.883  29.052  1.00 38.18     0.195 C 
HETATM    3  C3  NAG B   2       3.999  24.693  28.141  1.00 40.28     0.209 C 
HETATM    4  O3  NAG B   2       3.016  24.518  27.107  1.00 44.52    -0.218 OA
HETATM    5  C4  NAG B   2       5.402  25.142  27.594  1.00 31.56     0.180 C 
HETATM    6  C5  NAG B   2       6.475  25.361  28.768  1.00 25.00     0.180 C 
HETATM    7  O5  NAG B   2       6.020  26.591  29.459  1.00 56.77    -0.327 OA
ENDROOT
BRANCH   1   8
HETATM    8  O4  NAG B   1       4.347  27.294  31.007  1.00 46.30    -0.327 OA
BRANCH   8   9
HETATM    9  C4  NAG B   1       4.949  28.746  30.973  1.00 41.63     0.180 C 
HETATM   10  C3  NAG B   1       3.965  29.578  30.077  1.00 14.31     0.209 C 
HETATM   11  C2  NAG B   1       4.242  31.051  30.298  1.00 29.05     0.198 C 
HETATM   12  O3  NAG B   1       4.190  29.168  28.721  1.00 28.14    -0.218 OA
HETATM   13  C1  NAG B   1       4.273  31.353  31.818  1.00 32.10     0.295 C 
HETATM   14  O1  NAG B   1       4.562  32.743  31.912  1.00 46.64    -0.188 OA
HETATM   15  O5  NAG B   1       5.484  30.681  32.341  1.00 32.95    -0.325 OA
HETATM   16  C5  NAG B   1       5.174  29.240  32.410  1.00 38.82     0.181 C 
BRANCH  11  17
HETATM   17  N2  NAG B   1       3.219  31.899  29.655  1.00 30.31    -0.232 NA
HETATM   18  C7  NAG B   1       3.421  32.575  28.497  1.00 19.61     0.252 C 
HETATM   19  O7  NAG B   1       4.436  32.550  27.967  1.00 24.37    -0.271 OA
HETATM   20  C8  NAG B   1       2.222  33.312  28.018  1.00 14.43     0.100 C 
ENDBRANCH  11  17
BRANCH  16  21
HETATM   21  C6  NAG B   1       6.343  28.573  33.093  1.00 50.43     0.214 C 
HETATM   22  O6  NAG B   1       6.715  29.220  34.398  1.00 38.95    -0.218 OA
ENDBRANCH  16  21
ENDBRANCH   8   9
ENDBRANCH   1   8
BRANCH   2  23
HETATM   23  N2  NAG B   2       2.300  25.529  29.714  1.00 47.13    -0.232 NA
HETATM   24  C7  NAG B   2       1.234  26.360  29.818  1.00 36.27     0.252 C 
HETATM   25  O7  NAG B   2       1.277  27.450  29.454  1.00 77.29    -0.271 OA
HETATM   26  C8  NAG B   2       0.021  25.743  30.431  1.00 25.48     0.100 C 
ENDBRANCH   2  23
BRANCH   6  27
HETATM   27  C6  NAG B   2       7.838  25.605  28.182  1.00 41.21     0.214 C 
HETATM   28  O6  NAG B   2       8.692  24.416  28.559  1.00 29.51    -0.218 OA
ENDBRANCH   6  27
BRANCH   5  29
HETATM   29  O4  NAG B   2       6.015  24.189  26.677  1.00 37.56    -0.327 OA
BRANCH  29  30
HETATM   30  C1  NAG B   3       6.444  24.149  25.288  1.00 31.25     0.262 C 
HETATM   31  C2  NAG B   3       5.354  24.112  24.220  1.00 50.86     0.195 C 
HETATM   32  C3  NAG B   3       5.968  23.862  22.879  1.00 27.28     0.212 C 
HETATM   33  O3  NAG B   3       4.997  24.202  21.870  1.00 49.98    -0.218 OA
HETATM   34  C4  NAG B   3       7.229  24.748  22.649  1.00 62.31     0.214 C 
HETATM   35  O4  NAG B   3       8.009  24.189  21.538  1.00 75.30    -0.218 OA
HETATM   36  C5  NAG B   3       8.187  24.838  23.854  1.00 37.66     0.184 C 
HETATM   37  O5  NAG B   3       7.451  25.150  25.041  1.00 55.96    -0.327 OA
BRANCH  31  38
HETATM   38  N2  NAG B   3       4.446  22.948  24.644  1.00 55.71    -0.232 NA
HETATM   39  C7  NAG B   3       3.145  22.873  24.305  1.00 64.76     0.252 C 
HETATM   40  O7  NAG B   3       2.559  23.795  23.942  1.00 66.12    -0.271 OA
HETATM   41  C8  NAG B   3       2.555  21.509  24.424  1.00 56.03     0.100 C 
ENDBRANCH  31  38
BRANCH  36  42
HETATM   42  C6  NAG B   3       9.192  25.968  23.682  1.00 49.19     0.214 C 
HETATM   43  O6  NAG B   3       8.549  27.278  23.600  1.00 68.92    -0.218 OA
ENDBRANCH  36  42
ENDBRANCH  29  30
ENDBRANCH   5  29
TORSDOF 10
ENDMDL
MODEL 3
REMARK VINA RESULT:    -6.528      2.384      9.212
REMARK INTER + INTRA:         -12.705
REMARK INTER:                 -10.132
REMARK INTRA:                  -2.573
REMARK UNBOUND:                -2.360
REMARK  10 active torsions:
REMARK  status: ('A' for Active; 'I' for Inactive)
REMARK    1  A    between atoms: C2_3  and  N2_4 
REMARK       I    between atoms: N2_4  and  C7_13 
REMARK    2  A    between atoms: C4_7  and  O4_8 
REMARK    3  A    between atoms: O4_8  and  C1_16 
REMARK    4  A    between atoms: C5_9  and  C6_11 
REMARK    5  A    between atoms: C2_17  and  N2_18 
REMARK       I    between atoms: N2_18  and  C7_27 
REMARK    6  A    between atoms: C4_21  and  O4_22 
REMARK    7  A    between atoms: O4_22  and  C1_30 
REMARK    8  A    between atoms: C5_23  and  C6_25 
REMARK    9  A    between atoms: C2_31  and  N2_32 
REMARK       I    between atoms: N2_32  and  C7_41 
REMARK   10  A    between atoms: C5_37  and  C6_39 
ROOT
HETATM    1  C1  NAG B   2       6.929  24.962  26.800  1.00 24.54     0.262 C 
HETATM    2  C2  NAG B   2       8.509  24.622  27.094  1.00 38.18     0.195 C 
HETATM    3  C3  NAG B   2       9.361  25.173  25.908  1.00 40.28     0.209 C 
HETATM    4  O3  NAG B   2      10.723  24.751  26.085  1.00 44.52    -0.218 OA
HETATM    5  C4  NAG B   2       8.678  24.548  24.638  1.00 31.56     0.180 C 
HETATM    6  C5  NAG B   2       7.148  25.007  24.477  1.00 25.00     0.180 C 
HETATM    7  O5  NAG B   2       6.435  24.306  25.572  1.00 56.77    -0.327 OA
ENDROOT
BRANCH   1   8
HETATM    8  O4  NAG B   1       6.119  24.466  27.930  1.00 46.30    -0.327 OA
BRANCH   8   9
HETATM    9  C4  NAG B   1       4.985  25.282  28.650  1.00 41.63     0.180 C 
HETATM   10  C3  NAG B   1       5.683  26.591  29.164  1.00 14.31     0.209 C 
HETATM   11  C2  NAG B   1       4.611  27.599  29.523  1.00 29.05     0.198 C 
HETATM   12  O3  NAG B   1       6.491  26.216  30.288  1.00 28.14    -0.218 OA
HETATM   13  C1  NAG B   1       3.602  27.725  28.354  1.00 32.10     0.295 C 
HETATM   14  O1  NAG B   1       2.634  28.668  28.800  1.00 46.64    -0.188 OA
HETATM   15  O5  NAG B   1       2.874  26.436  28.303  1.00 32.95    -0.325 OA
HETATM   16  C5  NAG B   1       3.794  25.454  27.695  1.00 38.82     0.181 C 
BRANCH  11  17
HETATM   17  N2  NAG B   1       5.188  28.926  29.812  1.00 30.31    -0.232 NA
HETATM   18  C7  NAG B   1       5.239  29.472  31.053  1.00 19.61     0.252 C 
HETATM   19  O7  NAG B   1       4.790  28.929  31.955  1.00 24.37    -0.271 OA
HETATM   20  C8  NAG B   1       5.920  30.792  31.098  1.00 14.43     0.100 C 
ENDBRANCH  11  17
BRANCH  16  21
HETATM   21  C6  NAG B   1       3.004  24.184  27.493  1.00 50.43     0.214 C 
HETATM   22  O6  NAG B   1       3.181  23.588  26.124  1.00 38.95    -0.218 OA
ENDBRANCH  16  21
ENDBRANCH   8   9
ENDBRANCH   1   8
BRANCH   2  23
HETATM   23  N2  NAG B   2       8.987  25.231  28.340  1.00 47.13    -0.232 NA
HETATM   24  C7  NAG B   2       9.545  24.536  29.362  1.00 36.27     0.252 C 
HETATM   25  O7  NAG B   2       9.611  23.389  29.351  1.00 77.29    -0.271 OA
HETATM   26  C8  NAG B   2      10.063  25.382  30.479  1.00 25.48     0.100 C 
ENDBRANCH   2  23
BRANCH   6  27
HETATM   27  C6  NAG B   2       6.604  24.535  23.156  1.00 41.21     0.214 C 
HETATM   28  O6  NAG B   2       5.190  24.068  23.412  1.00 29.51    -0.218 OA
ENDBRANCH   6  27
BRANCH   5  29
HETATM   29  O4  NAG B   2       9.327  24.899  23.380  1.00 37.56    -0.327 OA
BRANCH  29  30
HETATM   30  C1  NAG B   3      10.035  26.033  22.810  1.00 31.25     0.262 C 
HETATM   31  C2  NAG B   3       9.868  26.281  21.313  1.00 50.86     0.195 C 
HETATM   32  C3  NAG B   3      10.821  27.344  20.867  1.00 27.28     0.212 C 
HETATM   33  O3  NAG B   3      10.395  27.818  19.574  1.00 49.98    -0.218 OA
HETATM   34  C4  NAG B   3      10.828  28.559  21.843  1.00 62.31     0.214 C 
HETATM   35  O4  NAG B   3      12.035  29.358  21.604  1.00 75.30    -0.218 OA
HETATM   36  C5  NAG B   3      10.841  28.187  23.340  1.00 37.66     0.184 C 
HETATM   37  O5  NAG B   3       9.827  27.214  23.610  1.00 55.96    -0.327 OA
BRANCH  31  38
HETATM   38  N2  NAG B   3      10.197  24.929  20.664  1.00 55.71    -0.232 NA
HETATM   39  C7  NAG B   3       9.315  24.241  19.916  1.00 64.76     0.252 C 
HETATM   40  O7  NAG B   3       8.185  24.460  19.956  1.00 66.12    -0.271 OA
HETATM   41  C8  NAG B   3       9.927  23.205  19.037  1.00 56.03     0.100 C 
ENDBRANCH  31  38
BRANCH  36  42
HETATM   42  C6  NAG B   3      10.504  29.387  24.214  1.00 49.19     0.214 C 
HETATM   43  O6  NAG B   3       9.401  29.116  25.133  1.00 68.92    -0.218 OA
ENDBRANCH  36  42
ENDBRANCH  29  30
ENDBRANCH   5  29
TORSDOF 10
ENDMDL
MODEL 4
REMARK VINA RESULT:    -6.488      2.350     10.069
REMARK INTER + INTRA:         -12.641
REMARK INTER:                 -10.162
REMARK INTRA:                  -2.478
REMARK UNBOUND:                -2.360
REMARK  10 active torsions:
REMARK  status: ('A' for Active; 'I' for Inactive)
REMARK    1  A    between atoms: C2_3  and  N2_4 
REMARK       I    between atoms: N2_4  and  C7_13 
REMARK    2  A    between atoms: C4_7  and  O4_8 
REMARK    3  A    between atoms: O4_8  and  C1_16 
REMARK    4  A    between atoms: C5_9  and  C6_11 
REMARK    5  A    between atoms: C2_17  and  N2_18 
REMARK       I    between atoms: N2_18  and  C7_27 
REMARK    6  A    between atoms: C4_21  and  O4_22 
REMARK    7  A    between atoms: O4_22  and  C1_30 
REMARK    8  A    between atoms: C5_23  and  C6_25 
REMARK    9  A    between atoms: C2_31  and  N2_32 
REMARK       I    between atoms: N2_32  and  C7_41 
REMARK   10  A    between atoms: C5_37  and  C6_39 
ROOT
HETATM    1  C1  NAG B   2       7.738  24.883  25.528  1.00 24.54     0.262 C 
HETATM    2  C2  NAG B   2       9.357  25.108  25.684  1.00 38.18     0.195 C 
HETATM    3  C3  NAG B   2       9.853  25.976  24.484  1.00 40.28     0.209 C 
HETATM    4  O3  NAG B   2      11.287  26.052  24.533  1.00 44.52    -0.218 OA
HETATM    5  C4  NAG B   2       9.315  25.206  23.223  1.00 31.56     0.180 C 
HETATM    6  C5  NAG B   2       7.713  25.105  23.205  1.00 25.00     0.180 C 
HETATM    7  O5  NAG B   2       7.391  24.151  24.293  1.00 56.77    -0.327 OA
ENDROOT
BRANCH   1   8
HETATM    8  O4  NAG B   1       7.257  24.085  26.673  1.00 46.30    -0.327 OA
BRANCH   8   9
HETATM    9  C4  NAG B   1       5.999  24.434  27.548  1.00 41.63     0.180 C 
HETATM   10  C3  NAG B   1       6.399  25.723  28.349  1.00 14.31     0.209 C 
HETATM   11  C2  NAG B   1       5.140  26.347  28.916  1.00 29.05     0.198 C 
HETATM   12  O3  NAG B   1       7.320  25.309  29.369  1.00 28.14    -0.218 OA
HETATM   13  C1  NAG B   1       4.080  26.490  27.795  1.00 32.10     0.295 C 
HETATM   14  O1  NAG B   1       2.941  27.058  28.433  1.00 46.64    -0.188 OA
HETATM   15  O5  NAG B   1       3.666  25.110  27.449  1.00 32.95    -0.325 OA
HETATM   16  C5  NAG B   1       4.760  24.530  26.645  1.00 38.82     0.181 C 
BRANCH  11  17
HETATM   17  N2  NAG B   1       5.409  27.676  29.502  1.00 30.31    -0.232 NA
HETATM   18  C7  NAG B   1       5.441  27.918  30.835  1.00 19.61     0.252 C 
HETATM   19  O7  NAG B   1       5.218  27.088  31.592  1.00 24.37    -0.271 OA
HETATM   20  C8  NAG B   1       5.790  29.321  31.180  1.00 14.43     0.100 C 
ENDBRANCH  11  17
BRANCH  16  21
HETATM   21  C6  NAG B   1       4.275  23.187  26.154  1.00 50.43     0.214 C 
HETATM   22  O6  NAG B   1       4.352  23.039  24.660  1.00 38.95    -0.218 OA
ENDBRANCH  16  21
ENDBRANCH   8   9
ENDBRANCH   1   8
BRANCH   2  23
HETATM   23  N2  NAG B   2       9.706  25.792  26.935  1.00 47.13    -0.232 NA
HETATM   24  C7  NAG B   2      10.406  25.219  27.946  1.00 36.27     0.252 C 
HETATM   25  O7  NAG B   2      10.710  24.111  27.921  1.00 77.29    -0.271 OA
HETATM   26  C8  NAG B   2      10.743  26.144  29.069  1.00 25.48     0.100 C 
ENDBRANCH   2  23
BRANCH   6  27
HETATM   27  C6  NAG B   2       7.248  24.530  21.895  1.00 41.21     0.214 C 
HETATM   28  O6  NAG B   2       5.738  24.520  21.938  1.00 29.51    -0.218 OA
ENDBRANCH   6  27
BRANCH   5  29
HETATM   29  O4  NAG B   2       9.684  25.818  21.952  1.00 37.56    -0.327 OA
BRANCH  29  30
HETATM   30  C1  NAG B   3      10.888  26.039  21.168  1.00 31.25     0.262 C 
HETATM   31  C2  NAG B   3      10.732  26.104  19.651  1.00 50.86     0.195 C 
HETATM   32  C3  NAG B   3      12.081  26.123  19.005  1.00 27.28     0.212 C 
HETATM   33  O3  NAG B   3      11.920  26.557  17.640  1.00 49.98    -0.218 OA
HETATM   34  C4  NAG B   3      13.046  27.121  19.714  1.00 62.31     0.214 C 
HETATM   35  O4  NAG B   3      14.426  26.810  19.325  1.00 75.30    -0.218 OA
HETATM   36  C5  NAG B   3      13.006  27.076  21.255  1.00 37.66     0.184 C 
HETATM   37  O5  NAG B   3      11.651  27.135  21.711  1.00 55.96    -0.327 OA
BRANCH  31  38
HETATM   38  N2  NAG B   3       9.960  24.826  19.293  1.00 55.71    -0.232 NA
HETATM   39  C7  NAG B   3       9.032  24.779  18.319  1.00 64.76     0.252 C 
HETATM   40  O7  NAG B   3       8.544  25.734  17.899  1.00 66.12    -0.271 OA
HETATM   41  C8  NAG B   3       8.716  23.406  17.833  1.00 56.03     0.100 C 
ENDBRANCH  31  38
BRANCH  36  42
HETATM   42  C6  NAG B   3      13.699  28.287  21.865  1.00 49.19     0.214 C 
HETATM   43  O6  NAG B   3      13.244  28.564  23.224  1.00 68.92    -0.218 OA
ENDBRANCH  36  42
ENDBRANCH  29  30
ENDBRANCH   5  29
TORSDOF 10
ENDMDL
MODEL 5
REMARK VINA RESULT:    -6.485      2.989      9.906
REMARK INTER + INTRA:         -12.636
REMARK INTER:                 -10.548
REMARK INTRA:                  -2.088
REMARK UNBOUND:                -2.360
REMARK  10 active torsions:
REMARK  status: ('A' for Active; 'I' for Inactive)
REMARK    1  A    between atoms: C2_3  and  N2_4 
REMARK       I    between atoms: N2_4  and  C7_13 
REMARK    2  A    between atoms: C4_7  and  O4_8 
REMARK    3  A    between atoms: O4_8  and  C1_16 
REMARK    4  A    between atoms: C5_9  and  C6_11 
REMARK    5  A    between atoms: C2_17  and  N2_18 
REMARK       I    between atoms: N2_18  and  C7_27 
REMARK    6  A    between atoms: C4_21  and  O4_22 
REMARK    7  A    between atoms: O4_22  and  C1_30 
REMARK    8  A    between atoms: C5_23  and  C6_25 
REMARK    9  A    between atoms: C2_31  and  N2_32 
REMARK       I    between atoms: N2_32  and  C7_41 
REMARK   10  A    between atoms: C5_37  and  C6_39 
ROOT
HETATM    1  C1  NAG B   2       4.624  26.097  30.151  1.00 24.54     0.262 C 
HETATM    2  C2  NAG B   2       3.445  25.845  29.036  1.00 38.18     0.195 C 
HETATM    3  C3  NAG B   2       3.891  24.675  28.102  1.00 40.28     0.209 C 
HETATM    4  O3  NAG B   2       2.935  24.548  27.036  1.00 44.52    -0.218 OA
HETATM    5  C4  NAG B   2       5.316  25.118  27.607  1.00 31.56     0.180 C 
HETATM    6  C5  NAG B   2       6.359  25.285  28.817  1.00 25.00     0.180 C 
HETATM    7  O5  NAG B   2       5.903  26.501  29.531  1.00 56.77    -0.327 OA
ENDROOT
BRANCH   1   8
HETATM    8  O4  NAG B   1       4.199  27.185  31.054  1.00 46.30    -0.327 OA
BRANCH   8   9
HETATM    9  C4  NAG B   1       4.414  27.196  32.611  1.00 41.63     0.180 C 
HETATM   10  C3  NAG B   1       5.197  28.523  32.908  1.00 14.31     0.209 C 
HETATM   11  C2  NAG B   1       5.112  28.809  34.394  1.00 29.05     0.198 C 
HETATM   12  O3  NAG B   1       6.545  28.320  32.459  1.00 28.14    -0.218 OA
HETATM   13  C1  NAG B   1       3.637  28.718  34.858  1.00 32.10     0.295 C 
HETATM   14  O1  NAG B   1       3.673  28.977  36.257  1.00 46.64    -0.188 OA
HETATM   15  O5  NAG B   1       3.264  27.289  34.750  1.00 32.95    -0.325 OA
HETATM   16  C5  NAG B   1       3.061  27.011  33.315  1.00 38.82     0.181 C 
BRANCH  11  17
HETATM   17  N2  NAG B   1       5.642  30.148  34.720  1.00 30.31    -0.232 NA
HETATM   18  C7  NAG B   1       6.841  30.358  35.317  1.00 19.61     0.252 C 
HETATM   19  O7  NAG B   1       7.503  29.481  35.640  1.00 24.37    -0.271 OA
HETATM   20  C8  NAG B   1       7.180  31.795  35.488  1.00 14.43     0.100 C 
ENDBRANCH  11  17
BRANCH  16  21
HETATM   21  C6  NAG B   1       2.525  25.604  33.215  1.00 50.43     0.214 C 
HETATM   22  O6  NAG B   1       1.755  25.174  34.432  1.00 38.95    -0.218 OA
ENDBRANCH  16  21
ENDBRANCH   8   9
ENDBRANCH   1   8
BRANCH   2  23
HETATM   23  N2  NAG B   2       2.162  25.492  29.653  1.00 47.13    -0.232 NA
HETATM   24  C7  NAG B   2       1.123  26.351  29.795  1.00 36.27     0.252 C 
HETATM   25  O7  NAG B   2       1.209  27.461  29.506  1.00 77.29    -0.271 OA
HETATM   26  C8  NAG B   2      -0.122  25.737  30.345  1.00 25.48     0.100 C 
ENDBRANCH   2  23
BRANCH   6  27
HETATM   27  C6  NAG B   2       7.741  25.524  28.275  1.00 41.21     0.214 C 
HETATM   28  O6  NAG B   2       8.575  24.328  28.673  1.00 29.51    -0.218 OA
ENDBRANCH   6  27
BRANCH   5  29
HETATM   29  O4  NAG B   2       5.939  24.183  26.679  1.00 37.56    -0.327 OA
BRANCH  29  30
HETATM   30  C1  NAG B   3       6.381  24.168  25.294  1.00 31.25     0.262 C 
HETATM   31  C2  NAG B   3       5.300  24.135  24.216  1.00 50.86     0.195 C 
HETATM   32  C3  NAG B   3       5.928  23.913  22.877  1.00 27.28     0.212 C 
HETATM   33  O3  NAG B   3       4.963  24.257  21.864  1.00 49.98    -0.218 OA
HETATM   34  C4  NAG B   3       7.181  24.816  22.670  1.00 62.31     0.214 C 
HETATM   35  O4  NAG B   3       7.977  24.282  21.559  1.00 75.30    -0.218 OA
HETATM   36  C5  NAG B   3       8.128  24.898  23.886  1.00 37.66     0.184 C 
HETATM   37  O5  NAG B   3       7.379  25.184  25.070  1.00 55.96    -0.327 OA
BRANCH  31  38
HETATM   38  N2  NAG B   3       4.401  22.956  24.614  1.00 55.71    -0.232 NA
HETATM   39  C7  NAG B   3       3.102  22.876  24.272  1.00 64.76     0.252 C 
HETATM   40  O7  NAG B   3       2.508  23.800  23.926  1.00 66.12    -0.271 OA
HETATM   41  C8  NAG B   3       2.523  21.506  24.362  1.00 56.03     0.100 C 
ENDBRANCH  31  38
BRANCH  36  42
HETATM   42  C6  NAG B   3       9.122  26.041  23.739  1.00 49.19     0.214 C 
HETATM   43  O6  NAG B   3       9.197  26.871  24.939  1.00 68.92    -0.218 OA
ENDBRANCH  36  42
ENDBRANCH  29  30
ENDBRANCH   5  29
TORSDOF 10
ENDMDL
MODEL 6
REMARK VINA RESULT:    -6.429      2.319     10.064
REMARK INTER + INTRA:         -12.548
REMARK INTER:                 -10.108
REMARK INTRA:                  -2.440
REMARK UNBOUND:                -2.360
REMARK  10 active torsions:
REMARK  status: ('A' for Active; 'I' for Inactive)
REMARK    1  A    between atoms: C2_3  and  N2_4 
REMARK       I    between atoms: N2_4  and  C7_13 
REMARK    2  A    between atoms: C4_7  and  O4_8 
REMARK    3  A    between atoms: O4_8  and  C1_16 
REMARK    4  A    between atoms: C5_9  and  C6_11 
REMARK    5  A    between atoms: C2_17  and  N2_18 
REMARK       I    between atoms: N2_18  and  C7_27 
REMARK    6  A    between atoms: C4_21  and  O4_22 
REMARK    7  A    between atoms: O4_22  and  C1_30 
REMARK    8  A    between atoms: C5_23  and  C6_25 
REMARK    9  A    between atoms: C2_31  and  N2_32 
REMARK       I    between atoms: N2_32  and  C7_41 
REMARK   10  A    between atoms: C5_37  and  C6_39 
ROOT
HETATM    1  C1  NAG B   2       7.721  24.989  25.648  1.00 24.54     0.262 C 
HETATM    2  C2  NAG B   2       9.356  25.114  25.755  1.00 38.18     0.195 C 
HETATM    3  C3  NAG B   2       9.856  26.039  24.600  1.00 40.28     0.209 C 
HETATM    4  O3  NAG B   2      11.293  26.033  24.597  1.00 44.52    -0.218 OA
HETATM    5  C4  NAG B   2       9.231  25.394  23.311  1.00 31.56     0.180 C 
HETATM    6  C5  NAG B   2       7.625  25.381  23.349  1.00 25.00     0.180 C 
HETATM    7  O5  NAG B   2       7.289  24.368  24.379  1.00 56.77    -0.327 OA
ENDROOT
BRANCH   1   8
HETATM    8  O4  NAG B   1       7.238  24.136  26.752  1.00 46.30    -0.327 OA
BRANCH   8   9
HETATM    9  C4  NAG B   1       5.984  24.449  27.646  1.00 41.63     0.180 C 
HETATM   10  C3  NAG B   1       6.347  25.765  28.420  1.00 14.31     0.209 C 
HETATM   11  C2  NAG B   1       5.076  26.348  29.003  1.00 29.05     0.198 C 
HETATM   12  O3  NAG B   1       7.304  25.405  29.427  1.00 28.14    -0.218 OA
HETATM   13  C1  NAG B   1       3.989  26.430  27.901  1.00 32.10     0.295 C 
HETATM   14  O1  NAG B   1       2.841  26.962  28.554  1.00 46.64    -0.188 OA
HETATM   15  O5  NAG B   1       3.624  25.030  27.585  1.00 32.95    -0.325 OA
HETATM   16  C5  NAG B   1       4.724  24.480  26.768  1.00 38.82     0.181 C 
BRANCH  11  17
HETATM   17  N2  NAG B   1       5.303  27.695  29.562  1.00 30.31    -0.232 NA
HETATM   18  C7  NAG B   1       5.356  27.959  30.891  1.00 19.61     0.252 C 
HETATM   19  O7  NAG B   1       5.185  27.133  31.665  1.00 24.37    -0.271 OA
HETATM   20  C8  NAG B   1       5.654  29.381  31.207  1.00 14.43     0.100 C 
ENDBRANCH  11  17
BRANCH  16  21
HETATM   21  C6  NAG B   1       4.284  23.112  26.307  1.00 50.43     0.214 C 
HETATM   22  O6  NAG B   1       4.338  22.942  24.815  1.00 38.95    -0.218 OA
ENDBRANCH  16  21
ENDBRANCH   8   9
ENDBRANCH   1   8
BRANCH   2  23
HETATM   23  N2  NAG B   2       9.788  25.684  27.035  1.00 47.13    -0.232 NA
HETATM   24  C7  NAG B   2      10.393  24.974  28.019  1.00 36.27     0.252 C 
HETATM   25  O7  NAG B   2      10.540  23.836  27.944  1.00 77.29    -0.271 OA
HETATM   26  C8  NAG B   2      10.849  25.789  29.184  1.00 25.48     0.100 C 
ENDBRANCH   2  23
BRANCH   6  27
HETATM   27  C6  NAG B   2       7.081  24.930  22.022  1.00 41.21     0.214 C 
HETATM   28  O6  NAG B   2       5.586  24.788  22.191  1.00 29.51    -0.218 OA
ENDBRANCH   6  27
BRANCH   5  29
HETATM   29  O4  NAG B   2       9.587  26.076  22.072  1.00 37.56    -0.327 OA
BRANCH  29  30
HETATM   30  C1  NAG B   3      10.322  25.786  20.852  1.00 31.25     0.262 C 
HETATM   31  C2  NAG B   3      11.845  25.848  20.922  1.00 50.86     0.195 C 
HETATM   32  C3  NAG B   3      12.420  25.732  19.546  1.00 27.28     0.212 C 
HETATM   33  O3  NAG B   3      13.821  25.417  19.668  1.00 49.98    -0.218 OA
HETATM   34  C4  NAG B   3      11.742  24.588  18.733  1.00 62.31     0.214 C 
HETATM   35  O4  NAG B   3      12.033  24.779  17.307  1.00 75.30    -0.218 OA
HETATM   36  C5  NAG B   3      10.206  24.526  18.860  1.00 37.66     0.184 C 
HETATM   37  O5  NAG B   3       9.828  24.578  20.239  1.00 55.96    -0.327 OA
BRANCH  31  38
HETATM   38  N2  NAG B   3      12.142  27.223  21.537  1.00 55.71    -0.232 NA
HETATM   39  C7  NAG B   3      13.255  27.483  22.249  1.00 64.76     0.252 C 
HETATM   40  O7  NAG B   3      13.901  26.640  22.694  1.00 66.12    -0.271 OA
HETATM   41  C8  NAG B   3      13.574  28.932  22.387  1.00 56.03     0.100 C 
ENDBRANCH  31  38
BRANCH  36  42
HETATM   42  C6  NAG B   3       9.658  23.207  18.331  1.00 49.19     0.214 C 
HETATM   43  O6  NAG B   3       8.795  23.389  17.167  1.00 68.92    -0.218 OA
ENDBRANCH  36  42
ENDBRANCH  29  30
ENDBRANCH   5  29
TORSDOF 10
ENDMDL
MODEL 7
REMARK VINA RESULT:    -6.272      1.990     10.114
REMARK INTER + INTRA:         -12.299
REMARK INTER:                 -10.749
REMARK INTRA:                  -1.550
REMARK UNBOUND:                -2.360
REMARK  10 active torsions:
REMARK  status: ('A' for Active; 'I' for Inactive)
REMARK    1  A    between atoms: C2_3  and  N2_4 
REMARK       I    between atoms: N2_4  and  C7_13 
REMARK    2  A    between atoms: C4_7  and  O4_8 
REMARK    3  A    between atoms: O4_8  and  C1_16 
REMARK    4  A    between atoms: C5_9  and  C6_11 
REMARK    5  A    between atoms: C2_17  and  N2_18 
REMARK       I    between atoms: N2_18  and  C7_27 
REMARK    6  A    between atoms: C4_21  and  O4_22 
REMARK    7  A    between atoms: O4_22  and  C1_30 
REMARK    8  A    between atoms: C5_23  and  C6_25 
REMARK    9  A    between atoms: C2_31  and  N2_32 
REMARK       I    between atoms: N2_32  and  C7_41 
REMARK   10  A    between atoms: C5_37  and  C6_39 
ROOT
HETATM    1  C1  NAG B   2       7.064  26.440  25.383  1.00 24.54     0.262 C 
HETATM    2  C2  NAG B   2       6.618  25.402  24.191  1.00 38.18     0.195 C 
HETATM    3  C3  NAG B   2       7.910  24.814  23.541  1.00 40.28     0.209 C 
HETATM    4  O3  NAG B   2       7.533  24.021  22.403  1.00 44.52    -0.218 OA
HETATM    5  C4  NAG B   2       8.746  26.089  23.158  1.00 31.56     0.180 C 
HETATM    6  C5  NAG B   2       9.130  26.977  24.440  1.00 25.00     0.180 C 
HETATM    7  O5  NAG B   2       7.846  27.582  24.866  1.00 56.77    -0.327 OA
ENDROOT
BRANCH   1   8
HETATM    8  O4  NAG B   1       5.847  26.982  26.020  1.00 46.30    -0.327 OA
BRANCH   8   9
HETATM    9  C4  NAG B   1       5.526  26.904  27.557  1.00 41.63     0.180 C 
HETATM   10  C3  NAG B   1       3.975  27.113  27.665  1.00 14.31     0.209 C 
HETATM   11  C2  NAG B   1       3.525  26.675  29.044  1.00 29.05     0.198 C 
HETATM   12  O3  NAG B   1       3.724  28.503  27.415  1.00 28.14    -0.218 OA
HETATM   13  C1  NAG B   1       4.091  25.267  29.354  1.00 32.10     0.295 C 
HETATM   14  O1  NAG B   1       3.634  24.965  30.668  1.00 46.64    -0.188 OA
HETATM   15  O5  NAG B   1       5.555  25.439  29.496  1.00 32.95    -0.325 OA
HETATM   16  C5  NAG B   1       6.097  25.599  28.132  1.00 38.82     0.181 C 
BRANCH  11  17
HETATM   17  N2  NAG B   1       2.053  26.641  29.150  1.00 30.31    -0.232 NA
HETATM   18  C7  NAG B   1       1.339  27.448  29.973  1.00 19.61     0.252 C 
HETATM   19  O7  NAG B   1       1.860  28.189  30.673  1.00 24.37    -0.271 OA
HETATM   20  C8  NAG B   1      -0.132  27.267  29.859  1.00 14.43     0.100 C 
ENDBRANCH  11  17
BRANCH  16  21
HETATM   21  C6  NAG B   1       7.601  25.611  28.259  1.00 50.43     0.214 C 
HETATM   22  O6  NAG B   1       8.190  24.244  28.470  1.00 38.95    -0.218 OA
ENDBRANCH  16  21
ENDBRANCH   8   9
ENDBRANCH   1   8
BRANCH   2  23
HETATM   23  N2  NAG B   2       5.799  24.295  24.695  1.00 47.13    -0.232 NA
HETATM   24  C7  NAG B   2       4.762  23.744  24.016  1.00 36.27     0.252 C 
HETATM   25  O7  NAG B   2       4.399  24.170  23.012  1.00 77.29    -0.271 OA
HETATM   26  C8  NAG B   2       4.150  22.552  24.676  1.00 25.48     0.100 C 
ENDBRANCH   2  23
BRANCH   6  27
HETATM   27  C6  NAG B   2      10.081  28.072  24.042  1.00 41.21     0.214 C 
HETATM   28  O6  NAG B   2       9.241  29.183  23.455  1.00 29.51    -0.218 OA
ENDBRANCH   6  27
BRANCH   5  29
HETATM   29  O4  NAG B   2      10.010  25.794  22.493  1.00 37.56    -0.327 OA
BRANCH  29  30
HETATM   30  C1  NAG B   3      10.512  25.663  21.135  1.00 31.25     0.262 C 
HETATM   31  C2  NAG B   3      12.016  25.819  20.928  1.00 50.86     0.195 C 
HETATM   32  C3  NAG B   3      12.322  25.864  19.464  1.00 27.28     0.212 C 
HETATM   33  O3  NAG B   3      13.735  25.633  19.292  1.00 49.98    -0.218 OA
HETATM   34  C4  NAG B   3      11.557  24.756  18.680  1.00 62.31     0.214 C 
HETATM   35  O4  NAG B   3      11.562  25.092  17.252  1.00 75.30    -0.218 OA
HETATM   36  C5  NAG B   3      10.079  24.581  19.083  1.00 37.66     0.184 C 
HETATM   37  O5  NAG B   3       9.968  24.485  20.506  1.00 55.96    -0.327 OA
BRANCH  31  38
HETATM   38  N2  NAG B   3      12.359  27.150  21.612  1.00 55.71    -0.232 NA
HETATM   39  C7  NAG B   3      13.370  27.284  22.491  1.00 64.76     0.252 C 
HETATM   40  O7  NAG B   3      13.846  26.373  23.010  1.00 66.12    -0.271 OA
HETATM   41  C8  NAG B   3      13.816  28.689  22.708  1.00 56.03     0.100 C 
ENDBRANCH  31  38
BRANCH  36  42
HETATM   42  C6  NAG B   3       9.503  23.282  18.536  1.00 49.19     0.214 C 
HETATM   43  O6  NAG B   3       8.649  23.498  17.371  1.00 68.92    -0.218 OA
ENDBRANCH  36  42
ENDBRANCH  29  30
ENDBRANCH   5  29
TORSDOF 10
ENDMDL
MODEL 8
REMARK VINA RESULT:    -6.176      1.962      4.294
REMARK INTER + INTRA:         -12.146
REMARK INTER:                 -10.452
REMARK INTRA:                  -1.694
REMARK UNBOUND:                -2.360
REMARK  10 active torsions:
REMARK  status: ('A' for Active; 'I' for Inactive)
REMARK    1  A    between atoms: C2_3  and  N2_4 
REMARK       I    between atoms: N2_4  and  C7_13 
REMARK    2  A    between atoms: C4_7  and  O4_8 
REMARK    3  A    between atoms: O4_8  and  C1_16 
REMARK    4  A    between atoms: C5_9  and  C6_11 
REMARK    5  A    between atoms: C2_17  and  N2_18 
REMARK       I    between atoms: N2_18  and  C7_27 
REMARK    6  A    between atoms: C4_21  and  O4_22 
REMARK    7  A    between atoms: O4_22  and  C1_30 
REMARK    8  A    between atoms: C5_23  and  C6_25 
REMARK    9  A    between atoms: C2_31  and  N2_32 
REMARK       I    between atoms: N2_32  and  C7_41 
REMARK   10  A    between atoms: C5_37  and  C6_39 
ROOT
HETATM    1  C1  NAG B   2       7.791  24.895  25.876  1.00 24.54     0.262 C 
HETATM    2  C2  NAG B   2       6.421  24.024  25.626  1.00 38.18     0.195 C 
HETATM    3  C3  NAG B   2       5.240  24.743  26.351  1.00 40.28     0.209 C 
HETATM    4  O3  NAG B   2       4.071  23.911  26.262  1.00 44.52    -0.218 OA
HETATM    5  C4  NAG B   2       5.761  24.923  27.823  1.00 31.56     0.180 C 
HETATM    6  C5  NAG B   2       7.085  25.829  27.896  1.00 25.00     0.180 C 
HETATM    7  O5  NAG B   2       8.147  24.978  27.308  1.00 56.77    -0.327 OA
ENDROOT
BRANCH   1   8
HETATM    8  O4  NAG B   1       8.908  24.235  25.173  1.00 46.30    -0.327 OA
BRANCH   8   9
HETATM    9  C4  NAG B   1      10.218  24.958  24.689  1.00 41.63     0.180 C 
HETATM   10  C3  NAG B   1       9.785  25.799  23.437  1.00 14.31     0.209 C 
HETATM   11  C2  NAG B   1      10.870  26.813  23.140  1.00 29.05     0.198 C 
HETATM   12  O3  NAG B   1       9.584  24.871  22.361  1.00 28.14    -0.218 OA
HETATM   13  C1  NAG B   1      11.237  27.578  24.437  1.00 32.10     0.295 C 
HETATM   14  O1  NAG B   1      12.271  28.478  24.055  1.00 46.64    -0.188 OA
HETATM   15  O5  NAG B   1      11.905  26.590  25.316  1.00 32.95    -0.325 OA
HETATM   16  C5  NAG B   1      10.843  25.724  25.864  1.00 38.82     0.181 C 
BRANCH  11  17
HETATM   17  N2  NAG B   1      10.443  27.781  22.110  1.00 30.31    -0.232 NA
HETATM   18  C7  NAG B   1      11.009  27.873  20.882  1.00 19.61     0.252 C 
HETATM   19  O7  NAG B   1      11.897  27.211  20.589  1.00 24.37    -0.271 OA
HETATM   20  C8  NAG B   1      10.367  28.884  20.002  1.00 14.43     0.100 C 
ENDBRANCH  11  17
BRANCH  16  21
HETATM   21  C6  NAG B   1      11.496  24.823  26.883  1.00 50.43     0.214 C 
HETATM   22  O6  NAG B   1      11.464  25.383  28.278  1.00 38.95    -0.218 OA
ENDBRANCH  16  21
ENDBRANCH   8   9
ENDBRANCH   1   8
BRANCH   2  23
HETATM   23  N2  NAG B   2       6.093  23.899  24.202  1.00 47.13    -0.232 NA
HETATM   24  C7  NAG B   2       6.051  24.941  23.336  1.00 36.27     0.252 C 
HETATM   25  O7  NAG B   2       6.196  26.027  23.686  1.00 77.29    -0.271 OA
HETATM   26  C8  NAG B   2       5.811  24.558  21.913  1.00 25.48     0.100 C 
ENDBRANCH   2  23
BRANCH   6  27
HETATM   27  C6  NAG B   2       7.430  26.123  29.330  1.00 41.21     0.214 C 
HETATM   28  O6  NAG B   2       8.693  26.953  29.311  1.00 29.51    -0.218 OA
ENDBRANCH   6  27
BRANCH   5  29
HETATM   29  O4  NAG B   2       4.803  25.558  28.720  1.00 37.56    -0.327 OA
BRANCH  29  30
HETATM   30  C1  NAG B   3       3.974  26.752  28.745  1.00 31.25     0.262 C 
HETATM   31  C2  NAG B   3       3.448  27.209  30.103  1.00 50.86     0.195 C 
HETATM   32  C3  NAG B   3       2.455  28.312  29.915  1.00 27.28     0.212 C 
HETATM   33  O3  NAG B   3       2.264  28.967  31.185  1.00 49.98    -0.218 OA
HETATM   34  C4  NAG B   3       2.962  29.378  28.898  1.00 62.31     0.214 C 
HETATM   35  O4  NAG B   3       1.824  30.187  28.447  1.00 75.30    -0.218 OA
HETATM   36  C5  NAG B   3       3.617  28.799  27.627  1.00 37.66     0.184 C 
HETATM   37  O5  NAG B   3       4.588  27.811  27.985  1.00 55.96    -0.327 OA
BRANCH  31  38
HETATM   38  N2  NAG B   3       2.786  25.957  30.696  1.00 55.71    -0.232 NA
HETATM   39  C7  NAG B   3       2.881  25.624  31.997  1.00 64.76     0.252 C 
HETATM   40  O7  NAG B   3       3.692  26.074  32.681  1.00 66.12    -0.271 OA
HETATM   41  C8  NAG B   3       1.849  24.655  32.463  1.00 56.03     0.100 C 
ENDBRANCH  31  38
BRANCH  36  42
HETATM   42  C6  NAG B   3       4.381  29.869  26.860  1.00 49.19     0.214 C 
HETATM   43  O6  NAG B   3       5.017  29.344  25.654  1.00 68.92    -0.218 OA
ENDBRANCH  36  42
ENDBRANCH  29  30
ENDBRANCH   5  29
TORSDOF 10
ENDMDL
MODEL 9
REMARK VINA RESULT:    -6.153      2.926      9.486
REMARK INTER + INTRA:         -12.111
REMARK INTER:                  -9.641
REMARK INTRA:                  -2.470
REMARK UNBOUND:                -2.360
REMARK  10 active torsions:
REMARK  status: ('A' for Active; 'I' for Inactive)
REMARK    1  A    between atoms: C2_3  and  N2_4 
REMARK       I    between atoms: N2_4  and  C7_13 
REMARK    2  A    between atoms: C4_7  and  O4_8 
REMARK    3  A    between atoms: O4_8  and  C1_16 
REMARK    4  A    between atoms: C5_9  and  C6_11 
REMARK    5  A    between atoms: C2_17  and  N2_18 
REMARK       I    between atoms: N2_18  and  C7_27 
REMARK    6  A    between atoms: C4_21  and  O4_22 
REMARK    7  A    between atoms: O4_22  and  C1_30 
REMARK    8  A    between atoms: C5_23  and  C6_25 
REMARK    9  A    between atoms: C2_31  and  N2_32 
REMARK       I    between atoms: N2_32  and  C7_41 
REMARK   10  A    between atoms: C5_37  and  C6_39 
ROOT
HETATM    1  C1  NAG B   2       3.636  27.796  29.440  1.00 24.54     0.262 C 
HETATM    2  C2  NAG B   2       3.150  26.236  29.604  1.00 38.18     0.195 C 
HETATM    3  C3  NAG B   2       4.245  25.311  28.987  1.00 40.28     0.209 C 
HETATM    4  O3  NAG B   2       3.761  23.958  28.992  1.00 44.52    -0.218 OA
HETATM    5  C4  NAG B   2       4.448  25.890  27.539  1.00 31.56     0.180 C 
HETATM    6  C5  NAG B   2       4.959  27.413  27.556  1.00 25.00     0.180 C 
HETATM    7  O5  NAG B   2       3.786  28.190  28.024  1.00 56.77    -0.327 OA
ENDROOT
BRANCH   1   8
HETATM    8  O4  NAG B   1       2.617  28.677  30.045  1.00 46.30    -0.327 OA
BRANCH   8   9
HETATM    9  C4  NAG B   1       2.924  29.865  31.027  1.00 41.63     0.180 C 
HETATM   10  C3  NAG B   1       3.386  29.186  32.363  1.00 14.31     0.209 C 
HETATM   11  C2  NAG B   1       4.062  30.232  33.226  1.00 29.05     0.198 C 
HETATM   12  O3  NAG B   1       2.212  28.635  32.977  1.00 28.14    -0.218 OA
HETATM   13  C1  NAG B   1       5.125  30.988  32.390  1.00 32.10     0.295 C 
HETATM   14  O1  NAG B   1       5.676  31.953  33.280  1.00 46.64    -0.188 OA
HETATM   15  O5  NAG B   1       4.370  31.783  31.395  1.00 32.95    -0.325 OA
HETATM   16  C5  NAG B   1       3.908  30.838  30.360  1.00 38.82     0.181 C 
BRANCH  11  17
HETATM   17  N2  NAG B   1       4.711  29.626  34.406  1.00 30.31    -0.232 NA
HETATM   18  C7  NAG B   1       4.214  29.710  35.664  1.00 19.61     0.252 C 
HETATM   19  O7  NAG B   1       3.260  30.302  35.885  1.00 24.37    -0.271 OA
HETATM   20  C8  NAG B   1       5.016  28.969  36.674  1.00 14.43     0.100 C 
ENDBRANCH  11  17
BRANCH  16  21
HETATM   21  C6  NAG B   1       3.281  31.663  29.263  1.00 50.43     0.214 C 
HETATM   22  O6  NAG B   1       4.197  31.891  28.094  1.00 38.95    -0.218 OA
ENDBRANCH  16  21
ENDBRANCH   8   9
ENDBRANCH   1   8
BRANCH   2  23
HETATM   23  N2  NAG B   2       2.952  25.860  31.008  1.00 47.13    -0.232 NA
HETATM   24  C7  NAG B   2       1.764  25.467  31.531  1.00 36.27     0.252 C 
HETATM   25  O7  NAG B   2       0.795  25.480  30.913  1.00 77.29    -0.271 OA
HETATM   26  C8  NAG B   2       1.829  25.020  32.954  1.00 25.48     0.100 C 
ENDBRANCH   2  23
BRANCH   6  27
HETATM   27  C6  NAG B   2       5.314  27.852  26.162  1.00 41.21     0.214 C 
HETATM   28  O6  NAG B   2       4.687  29.213  25.963  1.00 29.51    -0.218 OA
ENDBRANCH   6  27
BRANCH   5  29
HETATM   29  O4  NAG B   2       5.422  25.159  26.738  1.00 37.56    -0.327 OA
BRANCH  29  30
HETATM   30  C1  NAG B   3       6.828  24.798  26.811  1.00 31.25     0.262 C 
HETATM   31  C2  NAG B   3       7.684  25.063  25.575  1.00 50.86     0.195 C 
HETATM   32  C3  NAG B   3       9.034  24.444  25.752  1.00 27.28     0.212 C 
HETATM   33  O3  NAG B   3       9.923  25.015  24.772  1.00 49.98    -0.218 OA
HETATM   34  C4  NAG B   3       9.624  24.741  27.163  1.00 62.31     0.214 C 
HETATM   35  O4  NAG B   3      10.718  23.800  27.431  1.00 75.30    -0.218 OA
HETATM   36  C5  NAG B   3       8.624  24.590  28.328  1.00 37.66     0.184 C 
HETATM   37  O5  NAG B   3       7.416  25.296  28.029  1.00 55.96    -0.327 OA
BRANCH  31  38
HETATM   38  N2  NAG B   3       6.911  24.399  24.427  1.00 55.71    -0.232 NA
HETATM   39  C7  NAG B   3       6.424  25.086  23.376  1.00 64.76     0.252 C 
HETATM   40  O7  NAG B   3       6.291  26.229  23.409  1.00 66.12    -0.271 OA
HETATM   41  C8  NAG B   3       6.101  24.247  22.188  1.00 56.03     0.100 C 
ENDBRANCH  31  38
BRANCH  36  42
HETATM   42  C6  NAG B   3       9.162  25.216  29.607  1.00 49.19     0.214 C 
HETATM   43  O6  NAG B   3       8.266  26.233  30.150  1.00 68.92    -0.218 OA
ENDBRANCH  36  42
ENDBRANCH  29  30
ENDBRANCH   5  29
TORSDOF 10
ENDMDL
