MODEL 1
REMARK VINA RESULT:    -7.044      0.000      0.000
REMARK INTER + INTRA:         -13.496
REMARK INTER:                 -11.162
REMARK INTRA:                  -2.335
REMARK UNBOUND:                -2.335
REMARK  10 active torsions:
REMARK  status: ('A' for Active; 'I' for Inactive)
REMARK    1  A    between atoms: C2_3  and  N2_4 
REMARK       I    between atoms: N2_4  and  C7_13 
REMARK    2  A    between atoms: C4_7  and  O4_8 
REMARK    3  A    between atoms: O4_8  and  C1_16 
REMARK    4  A    between atoms: C5_9  and  C6_11 
REMARK    5  A    between atoms: C2_17  and  N2_18 
REMARK       I    between atoms: N2_18  and  C7_27 
REMARK    6  A    between atoms: C4_21  and  O4_22 
REMARK    7  A    between atoms: O4_22  and  C1_30 
REMARK    8  A    between atoms: C5_23  and  C6_25 
REMARK    9  A    between atoms: C2_31  and  N2_32 
REMARK       I    between atoms: N2_32  and  C7_41 
REMARK   10  A    between atoms: C5_37  and  C6_39 
ROOT
HETATM    1  C1  NAG B   2       6.858  24.930  25.466  1.00 24.54     0.262 C 
HETATM    2  C2  NAG B   2       5.575  24.084  26.047  1.00 38.18     0.195 C 
HETATM    3  C3  NAG B   2       4.982  24.862  27.264  1.00 40.28     0.209 C 
HETATM    4  O3  NAG B   2       3.956  24.057  27.868  1.00 44.52    -0.218 OA
HETATM    5  C4  NAG B   2       6.224  25.088  28.201  1.00 31.56     0.180 C 
HETATM    6  C5  NAG B   2       7.372  25.962  27.495  1.00 25.00     0.180 C 
HETATM    7  O5  NAG B   2       7.940  25.061  26.464  1.00 56.77    -0.327 OA
ENDROOT
BRANCH   1   8
HETATM    8  O4  NAG B   1       7.409  24.213  24.298  1.00 46.30    -0.327 OA
BRANCH   8   9
HETATM    9  C4  NAG B   1       7.658  24.855  22.885  1.00 41.63     0.180 C 
HETATM   10  C3  NAG B   1       9.189  25.196  22.851  1.00 14.31     0.209 C 
HETATM   11  C2  NAG B   1       9.593  25.456  21.414  1.00 29.05     0.198 C 
HETATM   12  O3  NAG B   1       9.379  26.340  23.696  1.00 28.14    -0.218 OA
HETATM   13  C1  NAG B   1       9.086  24.301  20.515  1.00 32.10     0.295 C 
HETATM   14  O1  NAG B   1       9.493  24.653  19.197  1.00 46.64    -0.188 OA
HETATM   15  O5  NAG B   1       7.610  24.417  20.495  1.00 32.95    -0.325 OA
HETATM   16  C5  NAG B   1       7.128  23.911  21.795  1.00 38.82     0.181 C 
BRANCH  11  17
HETATM   17  N2  NAG B   1      11.057  25.574  21.274  1.00 30.31    -0.232 NA
HETATM   18  C7  NAG B   1      11.697  26.740  21.008  1.00 19.61     0.252 C 
HETATM   19  O7  NAG B   1      11.111  27.709  20.836  1.00 24.37    -0.271 OA
HETATM   20  C8  NAG B   1      13.177  26.615  20.973  1.00 14.43     0.100 C 
ENDBRANCH  11  17
BRANCH  16  21
HETATM   21  C6  NAG B   1       5.621  23.876  21.718  1.00 50.43     0.214 C 
HETATM   22  O6  NAG B   1       4.979  25.199  22.030  1.00 38.95    -0.218 OA
ENDBRANCH  16  21
ENDBRANCH   8   9
ENDBRANCH   1   8
BRANCH   2  23
HETATM   23  N2  NAG B   2       4.522  23.910  25.041  1.00 47.13    -0.232 NA
HETATM   24  C7  NAG B   2       3.753  22.799  24.928  1.00 36.27     0.252 C 
HETATM   25  O7  NAG B   2       3.933  21.868  25.578  1.00 77.29    -0.271 OA
HETATM   26  C8  NAG B   2       2.668  22.895  23.906  1.00 25.48     0.100 C 
ENDBRANCH   2  23
BRANCH   6  27
HETATM   27  C6  NAG B   2       8.445  26.304  28.492  1.00 41.21     0.214 C 
HETATM   28  O6  NAG B   2       9.150  25.011  28.830  1.00 29.51    -0.218 OA
ENDBRANCH   6  27
BRANCH   5  29
HETATM   29  O4  NAG B   2       5.912  25.782  29.444  1.00 37.56    -0.327 OA
BRANCH  29  30
HETATM   30  C1  NAG B   3       4.749  26.366  30.093  1.00 31.25     0.262 C 
HETATM   31  C2  NAG B   3       3.941  27.385  29.294  1.00 50.86     0.195 C 
HETATM   32  C3  NAG B   3       2.921  28.028  30.180  1.00 27.28     0.212 C 
HETATM   33  O3  NAG B   3       1.948  28.685  29.344  1.00 49.98    -0.218 OA
HETATM   34  C4  NAG B   3       2.171  26.977  31.053  1.00 62.31     0.214 C 
HETATM   35  O4  NAG B   3       1.504  27.667  32.163  1.00 75.30    -0.218 OA
HETATM   36  C5  NAG B   3       3.073  25.899  31.688  1.00 37.66     0.184 C 
HETATM   37  O5  NAG B   3       3.936  25.338  30.694  1.00 55.96    -0.327 OA
BRANCH  31  38
HETATM   38  N2  NAG B   3       4.983  28.404  28.812  1.00 55.71    -0.232 NA
HETATM   39  C7  NAG B   3       5.032  28.859  27.546  1.00 64.76     0.252 C 
HETATM   40  O7  NAG B   3       4.504  28.309  26.682  1.00 66.12    -0.271 OA
HETATM   41  C8  NAG B   3       5.799  30.125  27.375  1.00 56.03     0.100 C 
ENDBRANCH  31  38
BRANCH  36  42
HETATM   42  C6  NAG B   3       2.253  24.735  32.227  1.00 49.19     0.214 C 
HETATM   43  O6  NAG B   3       1.976  24.864  33.655  1.00 68.92    -0.218 OA
ENDBRANCH  36  42
ENDBRANCH  29  30
ENDBRANCH   5  29
TORSDOF 10
ENDMDL
MODEL 2
REMARK VINA RESULT:    -6.560      2.355      9.202
REMARK INTER + INTRA:         -12.730
REMARK INTER:                 -10.116
REMARK INTRA:                  -2.614
REMARK UNBOUND:                -2.335
REMARK  10 active torsions:
REMARK  status: ('A' for Active; 'I' for Inactive)
REMARK    1  A    between atoms: C2_3  and  N2_4 
REMARK       I    between atoms: N2_4  and  C7_13 
REMARK    2  A    between atoms: C4_7  and  O4_8 
REMARK    3  A    between atoms: O4_8  and  C1_16 
REMARK    4  A    between atoms: C5_9  and  C6_11 
REMARK    5  A    between atoms: C2_17  and  N2_18 
REMARK       I    between atoms: N2_18  and  C7_27 
REMARK    6  A    between atoms: C4_21  and  O4_22 
REMARK    7  A    between atoms: O4_22  and  C1_30 
REMARK    8  A    between atoms: C5_23  and  C6_25 
REMARK    9  A    between atoms: C2_31  and  N2_32 
REMARK       I    between atoms: N2_32  and  C7_41 
REMARK   10  A    between atoms: C5_37  and  C6_39 
ROOT
HETATM    1  C1  NAG B   2       7.108  25.024  26.757  1.00 24.54     0.262 C 
HETATM    2  C2  NAG B   2       8.694  24.720  27.054  1.00 38.18     0.195 C 
HETATM    3  C3  NAG B   2       9.534  25.267  25.857  1.00 40.28     0.209 C 
HETATM    4  O3  NAG B   2      10.904  24.874  26.038  1.00 44.52    -0.218 OA
HETATM    5  C4  NAG B   2       8.861  24.606  24.599  1.00 31.56     0.180 C 
HETATM    6  C5  NAG B   2       7.322  25.033  24.433  1.00 25.00     0.180 C 
HETATM    7  O5  NAG B   2       6.625  24.338  25.541  1.00 56.77    -0.327 OA
ENDROOT
BRANCH   1   8
HETATM    8  O4  NAG B   1       6.309  24.532  27.897  1.00 46.30    -0.327 OA
BRANCH   8   9
HETATM    9  C4  NAG B   1       5.142  25.328  28.586  1.00 41.63     0.180 C 
HETATM   10  C3  NAG B   1       5.794  26.663  29.089  1.00 14.31     0.209 C 
HETATM   11  C2  NAG B   1       4.688  27.646  29.415  1.00 29.05     0.198 C 
HETATM   12  O3  NAG B   1       6.595  26.331  30.231  1.00 28.14    -0.218 OA
HETATM   13  C1  NAG B   1       3.695  27.725  28.229  1.00 32.10     0.295 C 
HETATM   14  O1  NAG B   1       2.694  28.647  28.645  1.00 46.64    -0.188 OA
HETATM   15  O5  NAG B   1       3.005  26.415  28.189  1.00 32.95    -0.325 OA
HETATM   16  C5  NAG B   1       3.961  25.450  27.611  1.00 38.82     0.181 C 
BRANCH  11  17
HETATM   17  N2  NAG B   1       5.223  28.994  29.691  1.00 30.31    -0.232 NA
HETATM   18  C7  NAG B   1       5.252  29.555  30.925  1.00 19.61     0.252 C 
HETATM   19  O7  NAG B   1       4.815  29.010  31.832  1.00 24.37    -0.271 OA
HETATM   20  C8  NAG B   1       5.892  30.896  30.957  1.00 14.43     0.100 C 
ENDBRANCH  11  17
BRANCH  16  21
HETATM   21  C6  NAG B   1       3.211  24.155  27.418  1.00 50.43     0.214 C 
HETATM   22  O6  NAG B   1       3.442  23.530  26.070  1.00 38.95    -0.218 OA
ENDBRANCH  16  21
ENDBRANCH   8   9
ENDBRANCH   1   8
BRANCH   2  23
HETATM   23  N2  NAG B   2       9.162  25.360  28.288  1.00 47.13    -0.232 NA
HETATM   24  C7  NAG B   2       9.580  24.682  29.386  1.00 36.27     0.252 C 
HETATM   25  O7  NAG B   2       9.520  23.536  29.451  1.00 77.29    -0.271 OA
HETATM   26  C8  NAG B   2      10.121  25.544  30.480  1.00 25.48     0.100 C 
ENDBRANCH   2  23
BRANCH   6  27
HETATM   27  C6  NAG B   2       6.786  24.528  23.122  1.00 41.21     0.214 C 
HETATM   28  O6  NAG B   2       5.338  24.165  23.357  1.00 29.51    -0.218 OA
ENDBRANCH   6  27
BRANCH   5  29
HETATM   29  O4  NAG B   2       9.501  24.948  23.334  1.00 37.56    -0.327 OA
BRANCH  29  30
HETATM   30  C1  NAG B   3      10.130  26.106  22.720  1.00 31.25     0.262 C 
HETATM   31  C2  NAG B   3       9.909  26.310  21.224  1.00 50.86     0.195 C 
HETATM   32  C3  NAG B   3      10.790  27.413  20.728  1.00 27.28     0.212 C 
HETATM   33  O3  NAG B   3      10.304  27.832  19.438  1.00 49.98    -0.218 OA
HETATM   34  C4  NAG B   3      10.755  28.648  21.677  1.00 62.31     0.214 C 
HETATM   35  O4  NAG B   3      11.910  29.507  21.386  1.00 75.30    -0.218 OA
HETATM   36  C5  NAG B   3      10.829  28.312  23.181  1.00 37.66     0.184 C 
HETATM   37  O5  NAG B   3       9.879  27.292  23.500  1.00 55.96    -0.327 OA
BRANCH  31  38
HETATM   38  N2  NAG B   3      10.295  24.963  20.595  1.00 55.71    -0.232 NA
HETATM   39  C7  NAG B   3       9.445  24.231  19.851  1.00 64.76     0.252 C 
HETATM   40  O7  NAG B   3       8.307  24.406  19.881  1.00 66.12    -0.271 OA
HETATM   41  C8  NAG B   3      10.103  23.208  18.989  1.00 56.03     0.100 C 
ENDBRANCH  31  38
BRANCH  36  42
HETATM   42  C6  NAG B   3      10.449  29.512  24.037  1.00 49.19     0.214 C 
HETATM   43  O6  NAG B   3       9.499  29.166  25.091  1.00 68.92    -0.218 OA
ENDBRANCH  36  42
ENDBRANCH  29  30
ENDBRANCH   5  29
TORSDOF 10
ENDMDL
MODEL 3
REMARK VINA RESULT:    -6.516      2.318     10.064
REMARK INTER + INTRA:         -12.660
REMARK INTER:                 -10.261
REMARK INTRA:                  -2.399
REMARK UNBOUND:                -2.335
REMARK  10 active torsions:
REMARK  status: ('A' for Active; 'I' for Inactive)
REMARK    1  A    between atoms: C2_3  and  N2_4 
REMARK       I    between atoms: N2_4  and  C7_13 
REMARK    2  A    between atoms: C4_7  and  O4_8 
REMARK    3  A    between atoms: O4_8  and  C1_16 
REMARK    4  A    between atoms: C5_9  and  C6_11 
REMARK    5  A    between atoms: C2_17  and  N2_18 
REMARK       I    between atoms: N2_18  and  C7_27 
REMARK    6  A    between atoms: C4_21  and  O4_22 
REMARK    7  A    between atoms: O4_22  and  C1_30 
REMARK    8  A    between atoms: C5_23  and  C6_25 
REMARK    9  A    between atoms: C2_31  and  N2_32 
REMARK       I    between atoms: N2_32  and  C7_41 
REMARK   10  A    between atoms: C5_37  and  C6_39 
ROOT
HETATM    1  C1  NAG B   2       7.681  24.796  25.354  1.00 24.54     0.262 C 
HETATM    2  C2  NAG B   2       9.298  25.050  25.496  1.00 38.18     0.195 C 
HETATM    3  C3  NAG B   2       9.767  25.926  24.292  1.00 40.28     0.209 C 
HETATM    4  O3  NAG B   2      11.200  26.029  24.328  1.00 44.52    -0.218 OA
HETATM    5  C4  NAG B   2       9.233  25.146  23.036  1.00 31.56     0.180 C 
HETATM    6  C5  NAG B   2       7.633  25.015  23.031  1.00 25.00     0.180 C 
HETATM    7  O5  NAG B   2       7.338  24.056  24.122  1.00 56.77    -0.327 OA
ENDROOT
BRANCH   1   8
HETATM    8  O4  NAG B   1       7.225  23.989  26.503  1.00 46.30    -0.327 OA
BRANCH   8   9
HETATM    9  C4  NAG B   1       6.001  24.346  27.423  1.00 41.63     0.180 C 
HETATM   10  C3  NAG B   1       6.449  25.614  28.231  1.00 14.31     0.209 C 
HETATM   11  C2  NAG B   1       5.220  26.251  28.847  1.00 29.05     0.198 C 
HETATM   12  O3  NAG B   1       7.394  25.167  29.214  1.00 28.14    -0.218 OA
HETATM   13  C1  NAG B   1       4.128  26.430  27.763  1.00 32.10     0.295 C 
HETATM   14  O1  NAG B   1       3.020  27.007  28.446  1.00 46.64    -0.188 OA
HETATM   15  O5  NAG B   1       3.679  25.064  27.408  1.00 32.95    -0.325 OA
HETATM   16  C5  NAG B   1       4.736  24.477  26.561  1.00 38.82     0.181 C 
BRANCH  11  17
HETATM   17  N2  NAG B   1       5.531  27.564  29.445  1.00 30.31    -0.232 NA
HETATM   18  C7  NAG B   1       5.602  27.786  30.781  1.00 19.61     0.252 C 
HETATM   19  O7  NAG B   1       5.380  26.950  31.531  1.00 24.37    -0.271 OA
HETATM   20  C8  NAG B   1       5.988  29.176  31.137  1.00 14.43     0.100 C 
ENDBRANCH  11  17
BRANCH  16  21
HETATM   21  C6  NAG B   1       4.212  23.152  26.065  1.00 50.43     0.214 C 
HETATM   22  O6  NAG B   1       4.284  23.008  24.570  1.00 38.95    -0.218 OA
ENDBRANCH  16  21
ENDBRANCH   8   9
ENDBRANCH   1   8
BRANCH   2  23
HETATM   23  N2  NAG B   2       9.645  25.740  26.743  1.00 47.13    -0.232 NA
HETATM   24  C7  NAG B   2      10.517  25.258  27.663  1.00 36.27     0.252 C 
HETATM   25  O7  NAG B   2      10.993  24.217  27.561  1.00 77.29    -0.271 OA
HETATM   26  C8  NAG B   2      10.802  26.188  28.796  1.00 25.48     0.100 C 
ENDBRANCH   2  23
BRANCH   6  27
HETATM   27  C6  NAG B   2       7.167  24.432  21.725  1.00 41.21     0.214 C 
HETATM   28  O6  NAG B   2       5.658  24.501  21.733  1.00 29.51    -0.218 OA
ENDBRANCH   6  27
BRANCH   5  29
HETATM   29  O4  NAG B   2       9.579  25.764  21.761  1.00 37.56    -0.327 OA
BRANCH  29  30
HETATM   30  C1  NAG B   3      10.775  26.021  20.975  1.00 31.25     0.262 C 
HETATM   31  C2  NAG B   3      10.608  26.113  19.460  1.00 50.86     0.195 C 
HETATM   32  C3  NAG B   3      11.953  26.169  18.807  1.00 27.28     0.212 C 
HETATM   33  O3  NAG B   3      11.776  26.627  17.451  1.00 49.98    -0.218 OA
HETATM   34  C4  NAG B   3      12.904  27.169  19.529  1.00 62.31     0.214 C 
HETATM   35  O4  NAG B   3      14.287  26.888  19.126  1.00 75.30    -0.218 OA
HETATM   36  C5  NAG B   3      12.875  27.092  21.070  1.00 37.66     0.184 C 
HETATM   37  O5  NAG B   3      11.522  27.119  21.534  1.00 55.96    -0.327 OA
BRANCH  31  38
HETATM   38  N2  NAG B   3       9.856  24.829  19.081  1.00 55.71    -0.232 NA
HETATM   39  C7  NAG B   3       8.951  24.777  18.086  1.00 64.76     0.252 C 
HETATM   40  O7  NAG B   3       8.466  25.729  17.656  1.00 66.12    -0.271 OA
HETATM   41  C8  NAG B   3       8.659  23.402  17.590  1.00 56.03     0.100 C 
ENDBRANCH  31  38
BRANCH  36  42
HETATM   42  C6  NAG B   3      13.552  28.302  21.699  1.00 49.19     0.214 C 
HETATM   43  O6  NAG B   3      12.590  29.260  22.239  1.00 68.92    -0.218 OA
ENDBRANCH  36  42
ENDBRANCH  29  30
ENDBRANCH   5  29
TORSDOF 10
ENDMDL
MODEL 4
REMARK VINA RESULT:    -6.377      2.319     10.129
REMARK INTER + INTRA:         -12.439
REMARK INTER:                 -10.142
REMARK INTRA:                  -2.297
REMARK UNBOUND:                -2.335
REMARK  10 active torsions:
REMARK  status: ('A' for Active; 'I' for Inactive)
REMARK    1  A    between atoms: C2_3  and  N2_4 
REMARK       I    between atoms: N2_4  and  C7_13 
REMARK    2  A    between atoms: C4_7  and  O4_8 
REMARK    3  A    between atoms: O4_8  and  C1_16 
REMARK    4  A    between atoms: C5_9  and  C6_11 
REMARK    5  A    between atoms: C2_17  and  N2_18 
REMARK       I    between atoms: N2_18  and  C7_27 
REMARK    6  A    between atoms: C4_21  and  O4_22 
REMARK    7  A    between atoms: O4_22  and  C1_30 
REMARK    8  A    between atoms: C5_23  and  C6_25 
REMARK    9  A    between atoms: C2_31  and  N2_32 
REMARK       I    between atoms: N2_32  and  C7_41 
REMARK   10  A    between atoms: C5_37  and  C6_39 
ROOT
HETATM    1  C1  NAG B   2       7.883  25.005  25.535  1.00 24.54     0.262 C 
HETATM    2  C2  NAG B   2       9.504  25.242  25.655  1.00 38.18     0.195 C 
HETATM    3  C3  NAG B   2       9.962  26.133  24.457  1.00 40.28     0.209 C 
HETATM    4  O3  NAG B   2      11.396  26.222  24.472  1.00 44.52    -0.218 OA
HETATM    5  C4  NAG B   2       9.400  25.379  23.198  1.00 31.56     0.180 C 
HETATM    6  C5  NAG B   2       7.799  25.263  23.217  1.00 25.00     0.180 C 
HETATM    7  O5  NAG B   2       7.512  24.289  24.297  1.00 56.77    -0.327 OA
ENDROOT
BRANCH   1   8
HETATM    8  O4  NAG B   1       7.438  24.184  26.678  1.00 46.30    -0.327 OA
BRANCH   8   9
HETATM    9  C4  NAG B   1       6.172  24.484  27.561  1.00 41.63     0.180 C 
HETATM   10  C3  NAG B   1       6.526  25.788  28.359  1.00 14.31     0.209 C 
HETATM   11  C2  NAG B   1       5.248  26.363  28.934  1.00 29.05     0.198 C 
HETATM   12  O3  NAG B   1       7.470  25.412  29.372  1.00 28.14    -0.218 OA
HETATM   13  C1  NAG B   1       4.175  26.462  27.821  1.00 32.10     0.295 C 
HETATM   14  O1  NAG B   1       3.019  26.985  28.467  1.00 46.64    -0.188 OA
HETATM   15  O5  NAG B   1       3.814  25.067  27.478  1.00 32.95    -0.325 OA
HETATM   16  C5  NAG B   1       4.924  24.530  26.667  1.00 38.82     0.181 C 
BRANCH  11  17
HETATM   17  N2  NAG B   1       5.468  27.701  29.517  1.00 30.31    -0.232 NA
HETATM   18  C7  NAG B   1       5.490  27.948  30.851  1.00 19.61     0.252 C 
HETATM   19  O7  NAG B   1       5.296  27.112  31.609  1.00 24.37    -0.271 OA
HETATM   20  C8  NAG B   1       5.787  29.363  31.192  1.00 14.43     0.100 C 
ENDBRANCH  11  17
BRANCH  16  21
HETATM   21  C6  NAG B   1       4.490  23.169  26.180  1.00 50.43     0.214 C 
HETATM   22  O6  NAG B   1       4.367  23.084  24.685  1.00 38.95    -0.218 OA
ENDBRANCH  16  21
ENDBRANCH   8   9
ENDBRANCH   1   8
BRANCH   2  23
HETATM   23  N2  NAG B   2       9.877  25.909  26.907  1.00 47.13    -0.232 NA
HETATM   24  C7  NAG B   2      10.594  25.322  27.897  1.00 36.27     0.252 C 
HETATM   25  O7  NAG B   2      10.896  24.214  27.853  1.00 77.29    -0.271 OA
HETATM   26  C8  NAG B   2      10.955  26.231  29.026  1.00 25.48     0.100 C 
ENDBRANCH   2  23
BRANCH   6  27
HETATM   27  C6  NAG B   2       7.307  24.705  21.910  1.00 41.21     0.214 C 
HETATM   28  O6  NAG B   2       5.799  24.660  21.998  1.00 29.51    -0.218 OA
ENDBRANCH   6  27
BRANCH   5  29
HETATM   29  O4  NAG B   2       9.732  26.014  21.928  1.00 37.56    -0.327 OA
BRANCH  29  30
HETATM   30  C1  NAG B   3      10.454  25.683  20.710  1.00 31.25     0.262 C 
HETATM   31  C2  NAG B   3      11.978  25.651  20.789  1.00 50.86     0.195 C 
HETATM   32  C3  NAG B   3      12.552  25.504  19.415  1.00 27.28     0.212 C 
HETATM   33  O3  NAG B   3      13.931  25.103  19.544  1.00 49.98    -0.218 OA
HETATM   34  C4  NAG B   3      11.810  24.407  18.594  1.00 62.31     0.214 C 
HETATM   35  O4  NAG B   3      12.120  24.583  17.171  1.00 75.30    -0.218 OA
HETATM   36  C5  NAG B   3      10.272  24.438  18.713  1.00 37.66     0.184 C 
HETATM   37  O5  NAG B   3       9.890  24.510  20.090  1.00 55.96    -0.327 OA
BRANCH  31  38
HETATM   38  N2  NAG B   3      12.356  27.003  21.410  1.00 55.71    -0.232 NA
HETATM   39  C7  NAG B   3      13.484  27.195  22.120  1.00 64.76     0.252 C 
HETATM   40  O7  NAG B   3      14.081  26.314  22.558  1.00 66.12    -0.271 OA
HETATM   41  C8  NAG B   3      13.887  28.622  22.263  1.00 56.03     0.100 C 
ENDBRANCH  31  38
BRANCH  36  42
HETATM   42  C6  NAG B   3       9.647  23.158  18.178  1.00 49.19     0.214 C 
HETATM   43  O6  NAG B   3       8.982  23.357  16.892  1.00 68.92    -0.218 OA
ENDBRANCH  36  42
ENDBRANCH  29  30
ENDBRANCH   5  29
TORSDOF 10
ENDMDL
MODEL 5
REMARK VINA RESULT:    -6.337      2.347     10.008
REMARK INTER + INTRA:         -12.376
REMARK INTER:                 -10.172
REMARK INTRA:                  -2.205
REMARK UNBOUND:                -2.335
REMARK  10 active torsions:
REMARK  status: ('A' for Active; 'I' for Inactive)
REMARK    1  A    between atoms: C2_3  and  N2_4 
REMARK       I    between atoms: N2_4  and  C7_13 
REMARK    2  A    between atoms: C4_7  and  O4_8 
REMARK    3  A    between atoms: O4_8  and  C1_16 
REMARK    4  A    between atoms: C5_9  and  C6_11 
REMARK    5  A    between atoms: C2_17  and  N2_18 
REMARK       I    between atoms: N2_18  and  C7_27 
REMARK    6  A    between atoms: C4_21  and  O4_22 
REMARK    7  A    between atoms: O4_22  and  C1_30 
REMARK    8  A    between atoms: C5_23  and  C6_25 
REMARK    9  A    between atoms: C2_31  and  N2_32 
REMARK       I    between atoms: N2_32  and  C7_41 
REMARK   10  A    between atoms: C5_37  and  C6_39 
ROOT
HETATM    1  C1  NAG B   2       7.100  25.630  27.046  1.00 24.54     0.262 C 
HETATM    2  C2  NAG B   2       8.594  24.979  27.252  1.00 38.18     0.195 C 
HETATM    3  C3  NAG B   2       9.465  25.342  26.008  1.00 40.28     0.209 C 
HETATM    4  O3  NAG B   2      10.723  24.654  26.110  1.00 44.52    -0.218 OA
HETATM    5  C4  NAG B   2       8.593  24.863  24.791  1.00 31.56     0.180 C 
HETATM    6  C5  NAG B   2       7.180  25.621  24.714  1.00 25.00     0.180 C 
HETATM    7  O5  NAG B   2       6.409  25.083  25.860  1.00 56.77    -0.327 OA
ENDROOT
BRANCH   1   8
HETATM    8  O4  NAG B   1       6.277  25.312  28.230  1.00 46.30    -0.327 OA
BRANCH   8   9
HETATM    9  C4  NAG B   1       5.406  26.352  29.025  1.00 41.63     0.180 C 
HETATM   10  C3  NAG B   1       3.937  25.803  28.946  1.00 14.31     0.209 C 
HETATM   11  C2  NAG B   1       3.101  26.516  29.989  1.00 29.05     0.198 C 
HETATM   12  O3  NAG B   1       3.476  26.042  27.608  1.00 28.14    -0.218 OA
HETATM   13  C1  NAG B   1       3.823  26.463  31.359  1.00 32.10     0.295 C 
HETATM   14  O1  NAG B   1       2.973  27.174  32.253  1.00 46.64    -0.188 OA
HETATM   15  O5  NAG B   1       5.022  27.321  31.220  1.00 32.95    -0.325 OA
HETATM   16  C5  NAG B   1       6.002  26.554  30.426  1.00 38.82     0.181 C 
BRANCH  11  17
HETATM   17  N2  NAG B   1       1.763  25.906  30.122  1.00 30.31    -0.232 NA
HETATM   18  C7  NAG B   1       0.608  26.552  29.826  1.00 19.61     0.252 C 
HETATM   19  O7  NAG B   1       0.614  27.645  29.485  1.00 24.37    -0.271 OA
HETATM   20  C8  NAG B   1      -0.606  25.710  29.984  1.00 14.43     0.100 C 
ENDBRANCH  11  17
BRANCH  16  21
HETATM   21  C6  NAG B   1       7.281  27.354  30.419  1.00 50.43     0.214 C 
HETATM   22  O6  NAG B   1       7.353  28.350  29.296  1.00 38.95    -0.218 OA
ENDBRANCH  16  21
ENDBRANCH   8   9
ENDBRANCH   1   8
BRANCH   2  23
HETATM   23  N2  NAG B   2       9.260  25.484  28.457  1.00 47.13    -0.232 NA
HETATM   24  C7  NAG B   2       9.737  24.695  29.451  1.00 36.27     0.252 C 
HETATM   25  O7  NAG B   2       9.577  23.557  29.452  1.00 77.29    -0.271 OA
HETATM   26  C8  NAG B   2      10.480  25.424  30.521  1.00 25.48     0.100 C 
ENDBRANCH   2  23
BRANCH   6  27
HETATM   27  C6  NAG B   2       6.472  25.263  23.436  1.00 41.21     0.214 C 
HETATM   28  O6  NAG B   2       6.079  23.808  23.550  1.00 29.51    -0.218 OA
ENDBRANCH   6  27
BRANCH   5  29
HETATM   29  O4  NAG B   2       9.221  25.071  23.491  1.00 37.56    -0.327 OA
BRANCH  29  30
HETATM   30  C1  NAG B   3      10.142  26.012  22.875  1.00 31.25     0.262 C 
HETATM   31  C2  NAG B   3      10.030  26.212  21.366  1.00 50.86     0.195 C 
HETATM   32  C3  NAG B   3      11.176  27.041  20.880  1.00 27.28     0.212 C 
HETATM   33  O3  NAG B   3      10.855  27.524  19.560  1.00 49.98    -0.218 OA
HETATM   34  C4  NAG B   3      11.423  28.278  21.795  1.00 62.31     0.214 C 
HETATM   35  O4  NAG B   3      12.765  28.808  21.530  1.00 75.30    -0.218 OA
HETATM   36  C5  NAG B   3      11.359  27.986  23.308  1.00 37.66     0.184 C 
HETATM   37  O5  NAG B   3      10.172  27.249  23.614  1.00 55.96    -0.327 OA
BRANCH  31  38
HETATM   38  N2  NAG B   3      10.084  24.790  20.788  1.00 55.71    -0.232 NA
HETATM   39  C7  NAG B   3       9.441  24.433  19.660  1.00 64.76     0.252 C 
HETATM   40  O7  NAG B   3       8.584  25.066  19.223  1.00 66.12    -0.271 OA
HETATM   41  C8  NAG B   3       9.947  23.178  19.034  1.00 56.03     0.100 C 
ENDBRANCH  31  38
BRANCH  36  42
HETATM   42  C6  NAG B   3      11.266  29.272  24.118  1.00 49.19     0.214 C 
HETATM   43  O6  NAG B   3      10.481  30.301  23.442  1.00 68.92    -0.218 OA
ENDBRANCH  36  42
ENDBRANCH  29  30
ENDBRANCH   5  29
TORSDOF 10
ENDMDL
MODEL 6
REMARK VINA RESULT:    -6.206      2.511      5.518
REMARK INTER + INTRA:         -12.168
REMARK INTER:                 -10.166
REMARK INTRA:                  -2.002
REMARK UNBOUND:                -2.335
REMARK  10 active torsions:
REMARK  status: ('A' for Active; 'I' for Inactive)
REMARK    1  A    between atoms: C2_3  and  N2_4 
REMARK       I    between atoms: N2_4  and  C7_13 
REMARK    2  A    between atoms: C4_7  and  O4_8 
REMARK    3  A    between atoms: O4_8  and  C1_16 
REMARK    4  A    between atoms: C5_9  and  C6_11 
REMARK    5  A    between atoms: C2_17  and  N2_18 
REMARK       I    between atoms: N2_18  and  C7_27 
REMARK    6  A    between atoms: C4_21  and  O4_22 
REMARK    7  A    between atoms: O4_22  and  C1_30 
REMARK    8  A    between atoms: C5_23  and  C6_25 
REMARK    9  A    between atoms: C2_31  and  N2_32 
REMARK       I    between atoms: N2_32  and  C7_41 
REMARK   10  A    between atoms: C5_37  and  C6_39 
ROOT
HETATM    1  C1  NAG B   2       9.882  25.617  22.797  1.00 24.54     0.262 C 
HETATM    2  C2  NAG B   2      10.270  26.133  24.307  1.00 38.18     0.195 C 
HETATM    3  C3  NAG B   2       9.586  25.186  25.343  1.00 40.28     0.209 C 
HETATM    4  O3  NAG B   2       9.798  25.717  26.662  1.00 44.52    -0.218 OA
HETATM    5  C4  NAG B   2       8.075  25.191  24.908  1.00 31.56     0.180 C 
HETATM    6  C5  NAG B   2       7.864  24.624  23.421  1.00 25.00     0.180 C 
HETATM    7  O5  NAG B   2       8.428  25.676  22.542  1.00 56.77    -0.327 OA
ENDROOT
BRANCH   1   8
HETATM    8  O4  NAG B   1      10.547  26.492  21.811  1.00 46.30    -0.327 OA
BRANCH   8   9
HETATM    9  C4  NAG B   1      11.399  25.987  20.590  1.00 41.63     0.180 C 
HETATM   10  C3  NAG B   1      12.884  25.988  21.096  1.00 14.31     0.209 C 
HETATM   11  C2  NAG B   1      13.719  25.164  20.138  1.00 29.05     0.198 C 
HETATM   12  O3  NAG B   1      13.301  27.359  21.158  1.00 28.14    -0.218 OA
HETATM   13  C1  NAG B   1      13.035  23.795  19.896  1.00 32.10     0.295 C 
HETATM   14  O1  NAG B   1      13.881  23.118  18.973  1.00 46.64    -0.188 OA
HETATM   15  O5  NAG B   1      11.801  24.086  19.131  1.00 32.95    -0.325 OA
HETATM   16  C5  NAG B   1      10.831  24.650  20.090  1.00 38.82     0.181 C 
BRANCH  11  17
HETATM   17  N2  NAG B   1      15.082  24.941  20.659  1.00 30.31    -0.232 NA
HETATM   18  C7  NAG B   1      16.198  25.475  20.103  1.00 19.61     0.252 C 
HETATM   19  O7  NAG B   1      16.138  26.112  19.154  1.00 24.37    -0.271 OA
HETATM   20  C8  NAG B   1      17.447  25.154  20.843  1.00 14.43     0.100 C 
ENDBRANCH  11  17
BRANCH  16  21
HETATM   21  C6  NAG B   1       9.523  24.797  19.352  1.00 50.43     0.214 C 
HETATM   22  O6  NAG B   1       8.813  23.489  19.137  1.00 38.95    -0.218 OA
ENDBRANCH  16  21
ENDBRANCH   8   9
ENDBRANCH   1   8
BRANCH   2  23
HETATM   23  N2  NAG B   2      11.718  26.122  24.544  1.00 47.13    -0.232 NA
HETATM   24  C7  NAG B   2      12.481  27.238  24.644  1.00 36.27     0.252 C 
HETATM   25  O7  NAG B   2      12.048  28.288  24.468  1.00 77.29    -0.271 OA
HETATM   26  C8  NAG B   2      13.909  26.984  25.004  1.00 25.48     0.100 C 
ENDBRANCH   2  23
BRANCH   6  27
HETATM   27  C6  NAG B   2       6.396  24.476  23.129  1.00 41.21     0.214 C 
HETATM   28  O6  NAG B   2       6.283  24.024  21.691  1.00 29.51    -0.218 OA
ENDBRANCH   6  27
BRANCH   5  29
HETATM   29  O4  NAG B   2       7.209  24.385  25.761  1.00 37.56    -0.327 OA
BRANCH  29  30
HETATM   30  C1  NAG B   3       5.951  24.537  26.474  1.00 31.25     0.262 C 
HETATM   31  C2  NAG B   3       5.603  25.932  26.987  1.00 50.86     0.195 C 
HETATM   32  C3  NAG B   3       4.395  25.861  27.867  1.00 27.28     0.212 C 
HETATM   33  O3  NAG B   3       3.874  27.195  28.025  1.00 49.98    -0.218 OA
HETATM   34  C4  NAG B   3       3.275  24.980  27.237  1.00 62.31     0.214 C 
HETATM   35  O4  NAG B   3       2.313  24.610  28.283  1.00 75.30    -0.218 OA
HETATM   36  C5  NAG B   3       3.765  23.659  26.609  1.00 37.66     0.184 C 
HETATM   37  O5  NAG B   3       4.877  23.913  25.744  1.00 55.96    -0.327 OA
BRANCH  31  38
HETATM   38  N2  NAG B   3       6.845  26.369  27.777  1.00 55.71    -0.232 NA
HETATM   39  C7  NAG B   3       7.344  27.618  27.728  1.00 64.76     0.252 C 
HETATM   40  O7  NAG B   3       7.067  28.349  26.883  1.00 66.12    -0.271 OA
HETATM   41  C8  NAG B   3       8.252  27.964  28.858  1.00 56.03     0.100 C 
ENDBRANCH  31  38
BRANCH  36  42
HETATM   42  C6  NAG B   3       2.693  23.031  25.729  1.00 49.19     0.214 C 
HETATM   43  O6  NAG B   3       3.201  21.906  24.949  1.00 68.92    -0.218 OA
ENDBRANCH  36  42
ENDBRANCH  29  30
ENDBRANCH   5  29
TORSDOF 10
ENDMDL
MODEL 7
REMARK VINA RESULT:    -6.161      2.946      9.802
REMARK INTER + INTRA:         -12.098
REMARK INTER:                  -9.561
REMARK INTRA:                  -2.537
REMARK UNBOUND:                -2.335
REMARK  10 active torsions:
REMARK  status: ('A' for Active; 'I' for Inactive)
REMARK    1  A    between atoms: C2_3  and  N2_4 
REMARK       I    between atoms: N2_4  and  C7_13 
REMARK    2  A    between atoms: C4_7  and  O4_8 
REMARK    3  A    between atoms: O4_8  and  C1_16 
REMARK    4  A    between atoms: C5_9  and  C6_11 
REMARK    5  A    between atoms: C2_17  and  N2_18 
REMARK       I    between atoms: N2_18  and  C7_27 
REMARK    6  A    between atoms: C4_21  and  O4_22 
REMARK    7  A    between atoms: O4_22  and  C1_30 
REMARK    8  A    between atoms: C5_23  and  C6_25 
REMARK    9  A    between atoms: C2_31  and  N2_32 
REMARK       I    between atoms: N2_32  and  C7_41 
REMARK   10  A    between atoms: C5_37  and  C6_39 
ROOT
HETATM    1  C1  NAG B   2       3.651  27.722  29.649  1.00 24.54     0.262 C 
HETATM    2  C2  NAG B   2       3.166  26.154  29.716  1.00 38.18     0.195 C 
HETATM    3  C3  NAG B   2       4.249  25.273  29.017  1.00 40.28     0.209 C 
HETATM    4  O3  NAG B   2       3.763  23.922  28.940  1.00 44.52    -0.218 OA
HETATM    5  C4  NAG B   2       4.426  25.949  27.609  1.00 31.56     0.180 C 
HETATM    6  C5  NAG B   2       4.938  27.467  27.719  1.00 25.00     0.180 C 
HETATM    7  O5  NAG B   2       3.775  28.210  28.260  1.00 56.77    -0.327 OA
ENDROOT
BRANCH   1   8
HETATM    8  O4  NAG B   1       2.644  28.559  30.330  1.00 46.30    -0.327 OA
BRANCH   8   9
HETATM    9  C4  NAG B   1       2.968  29.657  31.408  1.00 41.63     0.180 C 
HETATM   10  C3  NAG B   1       3.185  28.867  32.747  1.00 14.31     0.209 C 
HETATM   11  C2  NAG B   1       3.871  29.784  33.740  1.00 29.05     0.198 C 
HETATM   12  O3  NAG B   1       1.891  28.437  33.191  1.00 28.14    -0.218 OA
HETATM   13  C1  NAG B   1       5.107  30.440  33.075  1.00 32.10     0.295 C 
HETATM   14  O1  NAG B   1       5.656  31.291  34.075  1.00 46.64    -0.188 OA
HETATM   15  O5  NAG B   1       4.573  31.365  32.049  1.00 32.95    -0.325 OA
HETATM   16  C5  NAG B   1       4.131  30.530  30.915  1.00 38.82     0.181 C 
BRANCH  11  17
HETATM   17  N2  NAG B   1       4.301  29.052  34.948  1.00 30.31    -0.232 NA
HETATM   18  C7  NAG B   1       3.669  29.136  36.144  1.00 19.61     0.252 C 
HETATM   19  O7  NAG B   1       2.768  29.828  36.289  1.00 24.37    -0.271 OA
HETATM   20  C8  NAG B   1       4.254  28.260  37.193  1.00 14.43     0.100 C 
ENDBRANCH  11  17
BRANCH  16  21
HETATM   21  C6  NAG B   1       3.738  31.474  29.804  1.00 50.43     0.214 C 
HETATM   22  O6  NAG B   1       3.405  32.857  30.291  1.00 38.95    -0.218 OA
ENDBRANCH  16  21
ENDBRANCH   8   9
ENDBRANCH   1   8
BRANCH   2  23
HETATM   23  N2  NAG B   2       2.994  25.683  31.094  1.00 47.13    -0.232 NA
HETATM   24  C7  NAG B   2       1.801  25.330  31.635  1.00 36.27     0.252 C 
HETATM   25  O7  NAG B   2       0.813  25.455  31.060  1.00 77.29    -0.271 OA
HETATM   26  C8  NAG B   2       1.886  24.771  33.017  1.00 25.48     0.100 C 
ENDBRANCH   2  23
BRANCH   6  27
HETATM   27  C6  NAG B   2       5.268  28.000  26.352  1.00 41.21     0.214 C 
HETATM   28  O6  NAG B   2       6.716  28.431  26.392  1.00 29.51    -0.218 OA
ENDBRANCH   6  27
BRANCH   5  29
HETATM   29  O4  NAG B   2       5.384  25.274  26.741  1.00 37.56    -0.327 OA
BRANCH  29  30
HETATM   30  C1  NAG B   3       6.778  24.864  26.785  1.00 31.25     0.262 C 
HETATM   31  C2  NAG B   3       7.618  25.110  25.535  1.00 50.86     0.195 C 
HETATM   32  C3  NAG B   3       8.949  24.443  25.681  1.00 27.28     0.212 C 
HETATM   33  O3  NAG B   3       9.839  24.991  24.687  1.00 49.98    -0.218 OA
HETATM   34  C4  NAG B   3       9.576  24.708  27.082  1.00 62.31     0.214 C 
HETATM   35  O4  NAG B   3      10.642  23.728  27.322  1.00 75.30    -0.218 OA
HETATM   36  C5  NAG B   3       8.594  24.583  28.265  1.00 37.66     0.184 C 
HETATM   37  O5  NAG B   3       7.406  25.332  27.995  1.00 55.96    -0.327 OA
BRANCH  31  38
HETATM   38  N2  NAG B   3       6.801  24.481  24.397  1.00 55.71    -0.232 NA
HETATM   39  C7  NAG B   3       6.262  25.203  23.396  1.00 64.76     0.252 C 
HETATM   40  O7  NAG B   3       6.120  26.343  23.478  1.00 66.12    -0.271 OA
HETATM   41  C8  NAG B   3       5.893  24.406  22.191  1.00 56.03     0.100 C 
ENDBRANCH  31  38
BRANCH  36  42
HETATM   42  C6  NAG B   3       9.178  25.180  29.538  1.00 49.19     0.214 C 
HETATM   43  O6  NAG B   3       9.860  26.449  29.297  1.00 68.92    -0.218 OA
ENDBRANCH  36  42
ENDBRANCH  29  30
ENDBRANCH   5  29
TORSDOF 10
ENDMDL
MODEL 8
REMARK VINA RESULT:    -6.117      2.092      9.523
REMARK INTER + INTRA:         -12.027
REMARK INTER:                 -10.882
REMARK INTRA:                  -1.145
REMARK UNBOUND:                -2.335
REMARK  10 active torsions:
REMARK  status: ('A' for Active; 'I' for Inactive)
REMARK    1  A    between atoms: C2_3  and  N2_4 
REMARK       I    between atoms: N2_4  and  C7_13 
REMARK    2  A    between atoms: C4_7  and  O4_8 
REMARK    3  A    between atoms: O4_8  and  C1_16 
REMARK    4  A    between atoms: C5_9  and  C6_11 
REMARK    5  A    between atoms: C2_17  and  N2_18 
REMARK       I    between atoms: N2_18  and  C7_27 
REMARK    6  A    between atoms: C4_21  and  O4_22 
REMARK    7  A    between atoms: O4_22  and  C1_30 
REMARK    8  A    between atoms: C5_23  and  C6_25 
REMARK    9  A    between atoms: C2_31  and  N2_32 
REMARK       I    between atoms: N2_32  and  C7_41 
REMARK   10  A    between atoms: C5_37  and  C6_39 
ROOT
HETATM    1  C1  NAG B   2       6.840  24.226  26.775  1.00 24.54     0.262 C 
HETATM    2  C2  NAG B   2       6.059  24.927  25.511  1.00 38.18     0.195 C 
HETATM    3  C3  NAG B   2       6.871  24.638  24.208  1.00 40.28     0.209 C 
HETATM    4  O3  NAG B   2       6.277  25.371  23.124  1.00 44.52    -0.218 OA
HETATM    5  C4  NAG B   2       8.324  25.124  24.561  1.00 31.56     0.180 C 
HETATM    6  C5  NAG B   2       8.957  24.314  25.795  1.00 25.00     0.180 C 
HETATM    7  O5  NAG B   2       8.193  24.785  26.976  1.00 56.77    -0.327 OA
ENDROOT
BRANCH   1   8
HETATM    8  O4  NAG B   1       6.065  24.473  28.007  1.00 46.30    -0.327 OA
BRANCH   8   9
HETATM    9  C4  NAG B   1       5.513  25.875  28.456  1.00 41.63     0.180 C 
HETATM   10  C3  NAG B   1       4.020  25.618  28.864  1.00 14.31     0.209 C 
HETATM   11  C2  NAG B   1       3.528  26.808  29.663  1.00 29.05     0.198 C 
HETATM   12  O3  NAG B   1       3.284  25.424  27.648  1.00 28.14    -0.218 OA
HETATM   13  C1  NAG B   1       4.543  27.136  30.787  1.00 32.10     0.295 C 
HETATM   14  O1  NAG B   1       4.003  28.271  31.453  1.00 46.64    -0.188 OA
HETATM   15  O5  NAG B   1       5.756  27.643  30.106  1.00 32.95    -0.325 OA
HETATM   16  C5  NAG B   1       6.439  26.469  29.528  1.00 38.82     0.181 C 
BRANCH  11  17
HETATM   17  N2  NAG B   1       2.205  26.550  30.263  1.00 30.31    -0.232 NA
HETATM   18  C7  NAG B   1       1.081  27.233  29.931  1.00 19.61     0.252 C 
HETATM   19  O7  NAG B   1       1.114  28.092  29.174  1.00 24.37    -0.271 OA
HETATM   20  C8  NAG B   1      -0.139  26.751  30.628  1.00 14.43     0.100 C 
ENDBRANCH  11  17
BRANCH  16  21
HETATM   21  C6  NAG B   1       7.756  26.958  28.975  1.00 50.43     0.214 C 
HETATM   22  O6  NAG B   1       7.986  28.426  29.203  1.00 38.95    -0.218 OA
ENDBRANCH  16  21
ENDBRANCH   8   9
ENDBRANCH   1   8
BRANCH   2  23
HETATM   23  N2  NAG B   2       4.698  24.408  25.341  1.00 47.13    -0.232 NA
HETATM   24  C7  NAG B   2       4.408  23.149  24.929  1.00 36.27     0.252 C 
HETATM   25  O7  NAG B   2       5.229  22.414  24.603  1.00 77.29    -0.271 OA
HETATM   26  C8  NAG B   2       2.954  22.809  24.943  1.00 25.48     0.100 C 
ENDBRANCH   2  23
BRANCH   6  27
HETATM   27  C6  NAG B   2      10.404  24.686  25.968  1.00 41.21     0.214 C 
HETATM   28  O6  NAG B   2      10.886  23.985  27.216  1.00 29.51    -0.218 OA
ENDBRANCH   6  27
BRANCH   5  29
HETATM   29  O4  NAG B   2       9.279  24.982  23.469  1.00 37.56    -0.327 OA
BRANCH  29  30
HETATM   30  C1  NAG B   3       9.442  25.463  22.107  1.00 31.25     0.262 C 
HETATM   31  C2  NAG B   3      10.658  26.338  21.814  1.00 50.86     0.195 C 
HETATM   32  C3  NAG B   3      10.551  26.907  20.435  1.00 27.28     0.212 C 
HETATM   33  O3  NAG B   3      11.849  27.402  20.051  1.00 49.98    -0.218 OA
HETATM   34  C4  NAG B   3      10.124  25.827  19.397  1.00 62.31     0.214 C 
HETATM   35  O4  NAG B   3       9.643  26.496  18.182  1.00 75.30    -0.218 OA
HETATM   36  C5  NAG B   3       8.985  24.896  19.862  1.00 37.66     0.184 C 
HETATM   37  O5  NAG B   3       9.275  24.384  21.166  1.00 55.96    -0.327 OA
BRANCH  31  38
HETATM   38  N2  NAG B   3      10.599  27.441  22.881  1.00 55.71    -0.232 NA
HETATM   39  C7  NAG B   3      11.588  27.658  23.767  1.00 64.76     0.252 C 
HETATM   40  O7  NAG B   3      12.394  26.864  23.983  1.00 66.12    -0.271 OA
HETATM   41  C8  NAG B   3      11.554  29.001  24.413  1.00 56.03     0.100 C 
ENDBRANCH  31  38
BRANCH  36  42
HETATM   42  C6  NAG B   3       8.860  23.678  18.958  1.00 49.19     0.214 C 
HETATM   43  O6  NAG B   3      10.159  23.148  18.553  1.00 68.92    -0.218 OA
ENDBRANCH  36  42
ENDBRANCH  29  30
ENDBRANCH   5  29
TORSDOF 10
ENDMDL
MODEL 9
REMARK VINA RESULT:    -6.061      3.165     10.780
REMARK INTER + INTRA:         -11.938
REMARK INTER:                  -9.576
REMARK INTRA:                  -2.362
REMARK UNBOUND:                -2.335
REMARK  10 active torsions:
REMARK  status: ('A' for Active; 'I' for Inactive)
REMARK    1  A    between atoms: C2_3  and  N2_4 
REMARK       I    between atoms: N2_4  and  C7_13 
REMARK    2  A    between atoms: C4_7  and  O4_8 
REMARK    3  A    between atoms: O4_8  and  C1_16 
REMARK    4  A    between atoms: C5_9  and  C6_11 
REMARK    5  A    between atoms: C2_17  and  N2_18 
REMARK       I    between atoms: N2_18  and  C7_27 
REMARK    6  A    between atoms: C4_21  and  O4_22 
REMARK    7  A    between atoms: O4_22  and  C1_30 
REMARK    8  A    between atoms: C5_23  and  C6_25 
REMARK    9  A    between atoms: C2_31  and  N2_32 
REMARK       I    between atoms: N2_32  and  C7_41 
REMARK   10  A    between atoms: C5_37  and  C6_39 
ROOT
HETATM    1  C1  NAG B   2       3.571  27.074  31.226  1.00 24.54     0.262 C 
HETATM    2  C2  NAG B   2       2.914  26.561  29.811  1.00 38.18     0.195 C 
HETATM    3  C3  NAG B   2       3.860  25.484  29.190  1.00 40.28     0.209 C 
HETATM    4  O3  NAG B   2       3.370  25.139  27.884  1.00 44.52    -0.218 OA
HETATM    5  C4  NAG B   2       5.262  26.196  29.157  1.00 31.56     0.180 C 
HETATM    6  C5  NAG B   2       5.776  26.602  30.623  1.00 25.00     0.180 C 
HETATM    7  O5  NAG B   2       4.888  27.717  31.031  1.00 56.77    -0.327 OA
ENDROOT
BRANCH   1   8
HETATM    8  O4  NAG B   1       2.670  28.074  31.832  1.00 46.30    -0.327 OA
BRANCH   8   9
HETATM    9  C4  NAG B   1       2.303  28.146  33.358  1.00 41.63     0.180 C 
HETATM   10  C3  NAG B   1       1.811  26.703  33.732  1.00 14.31     0.209 C 
HETATM   11  C2  NAG B   1       1.804  26.573  35.241  1.00 29.05     0.198 C 
HETATM   12  O3  NAG B   1       0.506  26.548  33.156  1.00 28.14    -0.218 OA
HETATM   13  C1  NAG B   1       3.166  27.045  35.810  1.00 32.10     0.295 C 
HETATM   14  O1  NAG B   1       3.044  26.905  37.222  1.00 46.64    -0.188 OA
HETATM   15  O5  NAG B   1       3.217  28.507  35.581  1.00 32.95    -0.325 OA
HETATM   16  C5  NAG B   1       3.500  28.701  34.146  1.00 38.82     0.181 C 
BRANCH  11  17
HETATM   17  N2  NAG B   1       1.557  25.180  35.665  1.00 30.31    -0.232 NA
HETATM   18  C7  NAG B   1       0.413  24.767  36.263  1.00 19.61     0.252 C 
HETATM   19  O7  NAG B   1      -0.426  25.507  36.510  1.00 24.37    -0.271 OA
HETATM   20  C8  NAG B   1       0.378  23.307  36.542  1.00 14.43     0.100 C 
ENDBRANCH  11  17
BRANCH  16  21
HETATM   21  C6  NAG B   1       3.714  30.181  33.939  1.00 50.43     0.214 C 
HETATM   22  O6  NAG B   1       4.731  30.770  34.877  1.00 38.95    -0.218 OA
ENDBRANCH  16  21
ENDBRANCH   8   9
ENDBRANCH   1   8
BRANCH   2  23
HETATM   23  N2  NAG B   2       1.586  25.968  29.997  1.00 47.13    -0.232 NA
HETATM   24  C7  NAG B   2       0.422  26.611  29.731  1.00 36.27     0.252 C 
HETATM   25  O7  NAG B   2       0.397  27.714  29.409  1.00 77.29    -0.271 OA
HETATM   26  C8  NAG B   2      -0.802  25.769  29.885  1.00 25.48     0.100 C 
ENDBRANCH   2  23
BRANCH   6  27
HETATM   27  C6  NAG B   2       7.192  27.104  30.552  1.00 41.21     0.214 C 
HETATM   28  O6  NAG B   2       7.237  28.389  31.346  1.00 29.51    -0.218 OA
ENDBRANCH   6  27
BRANCH   5  29
HETATM   29  O4  NAG B   2       6.327  25.386  28.579  1.00 37.56    -0.327 OA
BRANCH  29  30
HETATM   30  C1  NAG B   3       6.969  25.209  27.287  1.00 31.25     0.262 C 
HETATM   31  C2  NAG B   3       8.390  24.652  27.283  1.00 50.86     0.195 C 
HETATM   32  C3  NAG B   3       8.963  24.736  25.904  1.00 27.28     0.212 C 
HETATM   33  O3  NAG B   3      10.123  23.882  25.845  1.00 49.98    -0.218 OA
HETATM   34  C4  NAG B   3       7.950  24.242  24.828  1.00 62.31     0.214 C 
HETATM   35  O4  NAG B   3       8.383  24.718  23.509  1.00 75.30    -0.218 OA
HETATM   36  C5  NAG B   3       6.504  24.745  25.020  1.00 37.66     0.184 C 
HETATM   37  O5  NAG B   3       6.088  24.529  26.372  1.00 55.96    -0.327 OA
BRANCH  31  38
HETATM   38  N2  NAG B   3       9.156  25.555  28.262  1.00 55.71    -0.232 NA
HETATM   39  C7  NAG B   3       9.861  25.075  29.303  1.00 64.76     0.252 C 
HETATM   40  O7  NAG B   3       9.701  24.008  29.705  1.00 66.12    -0.271 OA
HETATM   41  C8  NAG B   3      10.862  26.028  29.861  1.00 56.03     0.100 C 
ENDBRANCH  31  38
BRANCH  36  42
HETATM   42  C6  NAG B   3       5.525  23.964  24.156  1.00 49.19     0.214 C 
HETATM   43  O6  NAG B   3       4.672  23.077  24.943  1.00 68.92    -0.218 OA
ENDBRANCH  36  42
ENDBRANCH  29  30
ENDBRANCH   5  29
TORSDOF 10
ENDMDL
