MODEL 1
REMARK VINA RESULT:    -5.453      0.000      0.000
REMARK INTER + INTRA:         -10.851
REMARK INTER:                  -8.641
REMARK INTRA:                  -2.210
REMARK UNBOUND:                -2.210
REMARK  10 active torsions:
REMARK  status: ('A' for Active; 'I' for Inactive)
REMARK    1  A    between atoms: C2_3  and  N2_4 
REMARK       I    between atoms: N2_4  and  C7_13 
REMARK    2  A    between atoms: C4_7  and  O4_8 
REMARK    3  A    between atoms: O4_8  and  C1_16 
REMARK    4  A    between atoms: C5_9  and  C6_11 
REMARK    5  A    between atoms: C2_17  and  N2_18 
REMARK       I    between atoms: N2_18  and  C7_27 
REMARK    6  A    between atoms: C4_21  and  O4_22 
REMARK    7  A    between atoms: O4_22  and  C1_30 
REMARK    8  A    between atoms: C5_23  and  C6_25 
REMARK    9  A    between atoms: C2_31  and  N2_32 
REMARK       I    between atoms: N2_32  and  C7_41 
REMARK   10  A    between atoms: C5_37  and  C6_39 
ROOT
HETATM    1  C1  NAG B   2       9.322  24.915  14.122  1.00 24.54     0.262 C 
HETATM    2  C2  NAG B   2      10.169  25.294  15.478  1.00 38.18     0.195 C 
HETATM    3  C3  NAG B   2      10.264  26.849  15.581  1.00 40.28     0.209 C 
HETATM    4  O3  NAG B   2      11.127  27.185  16.680  1.00 44.52    -0.218 OA
HETATM    5  C4  NAG B   2      10.842  27.280  14.185  1.00 31.56     0.180 C 
HETATM    6  C5  NAG B   2       9.878  26.867  12.969  1.00 25.00     0.180 C 
HETATM    7  O5  NAG B   2       9.991  25.391  12.894  1.00 56.77    -0.327 OA
ENDROOT
BRANCH   1   8
HETATM    8  O4  NAG B   1       9.205  23.447  14.031  1.00 46.30    -0.327 OA
BRANCH   8   9
HETATM    9  C4  NAG B   1       9.614  22.589  12.778  1.00 41.63     0.180 C 
HETATM   10  C3  NAG B   1      10.526  21.444  13.343  1.00 14.31     0.209 C 
HETATM   11  C2  NAG B   1      10.650  20.363  12.289  1.00 29.05     0.198 C 
HETATM   12  O3  NAG B   1      11.787  22.042  13.675  1.00 28.14    -0.218 OA
HETATM   13  C1  NAG B   1       9.241  19.980  11.768  1.00 32.10     0.295 C 
HETATM   14  O1  NAG B   1       9.472  18.986  10.776  1.00 46.64    -0.188 OA
HETATM   15  O5  NAG B   1       8.753  21.157  11.014  1.00 32.95    -0.325 OA
HETATM   16  C5  NAG B   1       8.351  22.165  12.015  1.00 38.82     0.181 C 
BRANCH  11  17
HETATM   17  N2  NAG B   1      11.315  19.157  12.822  1.00 30.31    -0.232 NA
HETATM   18  C7  NAG B   1      12.580  18.790  12.500  1.00 19.61     0.252 C 
HETATM   19  O7  NAG B   1      13.197  19.394  11.748  1.00 24.37    -0.271 OA
HETATM   20  C8  NAG B   1      13.048  17.571  13.210  1.00 14.43     0.100 C 
ENDBRANCH  11  17
BRANCH  16  21
HETATM   21  C6  NAG B   1       7.703  23.298  11.257  1.00 50.43     0.214 C 
HETATM   22  O6  NAG B   1       8.228  23.453   9.857  1.00 38.95    -0.218 OA
ENDBRANCH  16  21
ENDBRANCH   8   9
ENDBRANCH   1   8
BRANCH   2  23
HETATM   23  N2  NAG B   2       9.531  24.779  16.694  1.00 47.13    -0.232 NA
HETATM   24  C7  NAG B   2      10.132  23.936  17.570  1.00 36.27     0.252 C 
HETATM   25  O7  NAG B   2      11.175  23.497  17.372  1.00 77.29    -0.271 OA
HETATM   26  C8  NAG B   2       9.331  23.640  18.796  1.00 25.48     0.100 C 
ENDBRANCH   2  23
BRANCH   6  27
HETATM   27  C6  NAG B   2      10.383  27.464  11.684  1.00 41.21     0.214 C 
HETATM   28  O6  NAG B   2       9.649  26.765  10.563  1.00 29.51    -0.218 OA
ENDBRANCH   6  27
BRANCH   5  29
HETATM   29  O4  NAG B   2      11.055  28.715  14.046  1.00 37.56    -0.327 OA
BRANCH  29  30
HETATM   30  C1  NAG B   3      10.362  29.947  14.386  1.00 31.25     0.262 C 
HETATM   31  C2  NAG B   3       9.905  30.835  13.231  1.00 50.86     0.195 C 
HETATM   32  C3  NAG B   3       9.408  32.141  13.763  1.00 27.28     0.212 C 
HETATM   33  O3  NAG B   3       8.651  32.792  12.724  1.00 49.98    -0.218 OA
HETATM   34  C4  NAG B   3       8.466  31.944  14.989  1.00 62.31     0.214 C 
HETATM   35  O4  NAG B   3       8.345  33.218  15.708  1.00 75.30    -0.218 OA
HETATM   36  C5  NAG B   3       8.955  30.906  16.021  1.00 37.66     0.184 C 
HETATM   37  O5  NAG B   3       9.326  29.694  15.356  1.00 55.96    -0.327 OA
BRANCH  31  38
HETATM   38  N2  NAG B   3      11.165  31.024  12.375  1.00 55.71    -0.232 NA
HETATM   39  C7  NAG B   3      11.132  31.120  11.033  1.00 64.76     0.252 C 
HETATM   40  O7  NAG B   3      10.218  30.775  10.422  1.00 66.12    -0.271 OA
HETATM   41  C8  NAG B   3      12.354  31.722  10.427  1.00 56.03     0.100 C 
ENDBRANCH  31  38
BRANCH  36  42
HETATM   42  C6  NAG B   3       7.846  30.521  16.990  1.00 49.19     0.214 C 
HETATM   43  O6  NAG B   3       7.880  29.104  17.343  1.00 68.92    -0.218 OA
ENDBRANCH  36  42
ENDBRANCH  29  30
ENDBRANCH   5  29
TORSDOF 10
ENDMDL
MODEL 2
REMARK VINA RESULT:    -5.214      3.330      6.564
REMARK INTER + INTRA:         -10.472
REMARK INTER:                  -8.316
REMARK INTRA:                  -2.156
REMARK UNBOUND:                -2.210
REMARK  10 active torsions:
REMARK  status: ('A' for Active; 'I' for Inactive)
REMARK    1  A    between atoms: C2_3  and  N2_4 
REMARK       I    between atoms: N2_4  and  C7_13 
REMARK    2  A    between atoms: C4_7  and  O4_8 
REMARK    3  A    between atoms: O4_8  and  C1_16 
REMARK    4  A    between atoms: C5_9  and  C6_11 
REMARK    5  A    between atoms: C2_17  and  N2_18 
REMARK       I    between atoms: N2_18  and  C7_27 
REMARK    6  A    between atoms: C4_21  and  O4_22 
REMARK    7  A    between atoms: O4_22  and  C1_30 
REMARK    8  A    between atoms: C5_23  and  C6_25 
REMARK    9  A    between atoms: C2_31  and  N2_32 
REMARK       I    between atoms: N2_32  and  C7_41 
REMARK   10  A    between atoms: C5_37  and  C6_39 
ROOT
HETATM    1  C1  NAG B   2       9.292  25.072  12.315  1.00 24.54     0.262 C 
HETATM    2  C2  NAG B   2       9.766  23.918  13.384  1.00 38.18     0.195 C 
HETATM    3  C3  NAG B   2       9.243  24.314  14.801  1.00 40.28     0.209 C 
HETATM    4  O3  NAG B   2       9.777  23.390  15.764  1.00 44.52    -0.218 OA
HETATM    5  C4  NAG B   2       9.769  25.783  14.994  1.00 31.56     0.180 C 
HETATM    6  C5  NAG B   2       9.186  26.792  13.890  1.00 25.00     0.180 C 
HETATM    7  O5  NAG B   2       9.865  26.397  12.633  1.00 56.77    -0.327 OA
ENDROOT
BRANCH   1   8
HETATM    8  O4  NAG B   1       9.761  24.692  10.968  1.00 46.30    -0.327 OA
BRANCH   8   9
HETATM    9  C4  NAG B   1       8.824  24.367   9.749  1.00 41.63     0.180 C 
HETATM   10  C3  NAG B   1       8.454  25.761   9.131  1.00 14.31     0.209 C 
HETATM   11  C2  NAG B   1       7.882  25.537   7.746  1.00 29.05     0.198 C 
HETATM   12  O3  NAG B   1       7.517  26.378  10.025  1.00 28.14    -0.218 OA
HETATM   13  C1  NAG B   1       8.824  24.611   6.937  1.00 32.10     0.295 C 
HETATM   14  O1  NAG B   1       8.187  24.448   5.674  1.00 46.64    -0.188 OA
HETATM   15  O5  NAG B   1       8.734  23.279   7.578  1.00 32.95    -0.325 OA
HETATM   16  C5  NAG B   1       9.519  23.355   8.825  1.00 38.82     0.181 C 
BRANCH  11  17
HETATM   17  N2  NAG B   1       7.708  26.810   7.017  1.00 30.31    -0.232 NA
HETATM   18  C7  NAG B   1       6.501  27.365   6.749  1.00 19.61     0.252 C 
HETATM   19  O7  NAG B   1       5.529  26.840   7.051  1.00 24.37    -0.271 OA
HETATM   20  C8  NAG B   1       6.587  28.677   6.056  1.00 14.43     0.100 C 
ENDBRANCH  11  17
BRANCH  16  21
HETATM   21  C6  NAG B   1       9.565  21.960   9.398  1.00 50.43     0.214 C 
HETATM   22  O6  NAG B   1       9.521  20.885   8.347  1.00 38.95    -0.218 OA
ENDBRANCH  16  21
ENDBRANCH   8   9
ENDBRANCH   1   8
BRANCH   2  23
HETATM   23  N2  NAG B   2       9.238  22.593  13.042  1.00 47.13    -0.232 NA
HETATM   24  C7  NAG B   2       9.980  21.459  13.028  1.00 36.27     0.252 C 
HETATM   25  O7  NAG B   2      11.115  21.473  13.212  1.00 77.29    -0.271 OA
HETATM   26  C8  NAG B   2       9.204  20.210  12.763  1.00 25.48     0.100 C 
ENDBRANCH   2  23
BRANCH   6  27
HETATM   27  C6  NAG B   2       9.568  28.206  14.230  1.00 41.21     0.214 C 
HETATM   28  O6  NAG B   2       8.291  28.925  14.596  1.00 29.51    -0.218 OA
ENDBRANCH   6  27
BRANCH   5  29
HETATM   29  O4  NAG B   2       9.428  26.373  16.283  1.00 37.56    -0.327 OA
BRANCH  29  30
HETATM   30  C1  NAG B   3       9.796  26.205  17.679  1.00 31.25     0.262 C 
HETATM   31  C2  NAG B   3      10.009  27.472  18.503  1.00 50.86     0.195 C 
HETATM   32  C3  NAG B   3      10.581  27.117  19.838  1.00 27.28     0.212 C 
HETATM   33  O3  NAG B   3      10.421  28.251  20.713  1.00 49.98    -0.218 OA
HETATM   34  C4  NAG B   3       9.838  25.908  20.481  1.00 62.31     0.214 C 
HETATM   35  O4  NAG B   3      10.670  25.351  21.554  1.00 75.30    -0.218 OA
HETATM   36  C5  NAG B   3       9.537  24.744  19.514  1.00 37.66     0.184 C 
HETATM   37  O5  NAG B   3       8.931  25.247  18.319  1.00 55.96    -0.327 OA
BRANCH  31  38
HETATM   38  N2  NAG B   3      10.999  28.304  17.674  1.00 55.71    -0.232 NA
HETATM   39  C7  NAG B   3      10.816  29.611  17.409  1.00 64.76     0.252 C 
HETATM   40  O7  NAG B   3       9.787  30.114  17.522  1.00 66.12    -0.271 OA
HETATM   41  C8  NAG B   3      12.049  30.332  16.984  1.00 56.03     0.100 C 
ENDBRANCH  31  38
BRANCH  36  42
HETATM   42  C6  NAG B   3       8.529  23.772  20.111  1.00 49.19     0.214 C 
HETATM   43  O6  NAG B   3       7.617  24.421  21.049  1.00 68.92    -0.218 OA
ENDBRANCH  36  42
ENDBRANCH  29  30
ENDBRANCH   5  29
TORSDOF 10
ENDMDL
MODEL 3
REMARK VINA RESULT:    -5.103     13.058     15.502
REMARK INTER + INTRA:         -10.296
REMARK INTER:                  -7.937
REMARK INTRA:                  -2.359
REMARK UNBOUND:                -2.210
REMARK  10 active torsions:
REMARK  status: ('A' for Active; 'I' for Inactive)
REMARK    1  A    between atoms: C2_3  and  N2_4 
REMARK       I    between atoms: N2_4  and  C7_13 
REMARK    2  A    between atoms: C4_7  and  O4_8 
REMARK    3  A    between atoms: O4_8  and  C1_16 
REMARK    4  A    between atoms: C5_9  and  C6_11 
REMARK    5  A    between atoms: C2_17  and  N2_18 
REMARK       I    between atoms: N2_18  and  C7_27 
REMARK    6  A    between atoms: C4_21  and  O4_22 
REMARK    7  A    between atoms: O4_22  and  C1_30 
REMARK    8  A    between atoms: C5_23  and  C6_25 
REMARK    9  A    between atoms: C2_31  and  N2_32 
REMARK       I    between atoms: N2_32  and  C7_41 
REMARK   10  A    between atoms: C5_37  and  C6_39 
ROOT
HETATM    1  C1  NAG B   2      -0.419  28.544   3.261  1.00 24.54     0.262 C 
HETATM    2  C2  NAG B   2       0.015  29.971   2.572  1.00 38.18     0.195 C 
HETATM    3  C3  NAG B   2      -0.387  31.129   3.539  1.00 40.28     0.209 C 
HETATM    4  O3  NAG B   2      -0.146  32.383   2.880  1.00 44.52    -0.218 OA
HETATM    5  C4  NAG B   2      -1.909  30.862   3.826  1.00 31.56     0.180 C 
HETATM    6  C5  NAG B   2      -2.159  29.442   4.533  1.00 25.00     0.180 C 
HETATM    7  O5  NAG B   2      -1.879  28.446   3.471  1.00 56.77    -0.327 OA
ENDROOT
BRANCH   1   8
HETATM    8  O4  NAG B   1      -0.020  27.443   2.363  1.00 46.30    -0.327 OA
BRANCH   8   9
HETATM    9  C4  NAG B   1       0.616  26.085   2.835  1.00 41.63     0.180 C 
HETATM   10  C3  NAG B   1      -0.415  24.979   2.416  1.00 14.31     0.209 C 
HETATM   11  C2  NAG B   1       0.273  23.631   2.478  1.00 29.05     0.198 C 
HETATM   12  O3  NAG B   1      -1.523  25.079   3.322  1.00 28.14    -0.218 OA
HETATM   13  C1  NAG B   1       1.618  23.697   1.712  1.00 32.10     0.295 C 
HETATM   14  O1  NAG B   1       2.188  22.400   1.852  1.00 46.64    -0.188 OA
HETATM   15  O5  NAG B   1       2.498  24.581   2.510  1.00 32.95    -0.325 OA
HETATM   16  C5  NAG B   1       2.040  25.964   2.270  1.00 38.82     0.181 C 
BRANCH  11  17
HETATM   17  N2  NAG B   1      -0.566  22.565   1.895  1.00 30.31    -0.232 NA
HETATM   18  C7  NAG B   1      -1.078  21.534   2.611  1.00 19.61     0.252 C 
HETATM   19  O7  NAG B   1      -0.846  21.416   3.726  1.00 24.37    -0.271 OA
HETATM   20  C8  NAG B   1      -1.939  20.622   1.813  1.00 14.43     0.100 C 
ENDBRANCH  11  17
BRANCH  16  21
HETATM   21  C6  NAG B   1       3.031  26.877   2.949  1.00 50.43     0.214 C 
HETATM   22  O6  NAG B   1       2.673  27.184   4.376  1.00 38.95    -0.218 OA
ENDBRANCH  16  21
ENDBRANCH   8   9
ENDBRANCH   1   8
BRANCH   2  23
HETATM   23  N2  NAG B   2       1.457  30.049   2.317  1.00 47.13    -0.232 NA
HETATM   24  C7  NAG B   2       2.019  29.969   1.086  1.00 36.27     0.252 C 
HETATM   25  O7  NAG B   2       1.393  29.751   0.146  1.00 77.29    -0.271 OA
HETATM   26  C8  NAG B   2       3.495  30.192   1.060  1.00 25.48     0.100 C 
ENDBRANCH   2  23
BRANCH   6  27
HETATM   27  C6  NAG B   2      -3.598  29.320   4.951  1.00 41.21     0.214 C 
HETATM   28  O6  NAG B   2      -4.044  27.927   4.573  1.00 29.51    -0.218 OA
ENDBRANCH   6  27
BRANCH   5  29
HETATM   29  O4  NAG B   2      -2.532  31.849   4.699  1.00 37.56    -0.327 OA
BRANCH  29  30
HETATM   30  C1  NAG B   3      -2.116  32.841   5.677  1.00 31.25     0.262 C 
HETATM   31  C2  NAG B   3      -3.114  33.942   6.023  1.00 50.86     0.195 C 
HETATM   32  C3  NAG B   3      -2.449  34.979   6.873  1.00 27.28     0.212 C 
HETATM   33  O3  NAG B   3      -3.475  35.784   7.486  1.00 49.98    -0.218 OA
HETATM   34  C4  NAG B   3      -1.602  34.335   8.011  1.00 62.31     0.214 C 
HETATM   35  O4  NAG B   3      -0.669  35.337   8.538  1.00 75.30    -0.218 OA
HETATM   36  C5  NAG B   3      -0.746  33.127   7.577  1.00 37.66     0.184 C 
HETATM   37  O5  NAG B   3      -1.547  32.201   6.837  1.00 55.96    -0.327 OA
BRANCH  31  38
HETATM   38  N2  NAG B   3      -3.532  34.520   4.663  1.00 55.71    -0.232 NA
HETATM   39  C7  NAG B   3      -4.721  35.115   4.453  1.00 64.76     0.252 C 
HETATM   40  O7  NAG B   3      -5.607  34.971   5.174  1.00 66.12    -0.271 OA
HETATM   41  C8  NAG B   3      -4.773  35.975   3.237  1.00 56.03     0.100 C 
ENDBRANCH  31  38
BRANCH  36  42
HETATM   42  C6  NAG B   3      -0.227  32.353   8.781  1.00 49.19     0.214 C 
HETATM   43  O6  NAG B   3      -1.172  32.354   9.894  1.00 68.92    -0.218 OA
ENDBRANCH  36  42
ENDBRANCH  29  30
ENDBRANCH   5  29
TORSDOF 10
ENDMDL
MODEL 4
REMARK VINA RESULT:    -4.967     12.985     15.494
REMARK INTER + INTRA:         -10.081
REMARK INTER:                  -7.549
REMARK INTRA:                  -2.532
REMARK UNBOUND:                -2.210
REMARK  10 active torsions:
REMARK  status: ('A' for Active; 'I' for Inactive)
REMARK    1  A    between atoms: C2_3  and  N2_4 
REMARK       I    between atoms: N2_4  and  C7_13 
REMARK    2  A    between atoms: C4_7  and  O4_8 
REMARK    3  A    between atoms: O4_8  and  C1_16 
REMARK    4  A    between atoms: C5_9  and  C6_11 
REMARK    5  A    between atoms: C2_17  and  N2_18 
REMARK       I    between atoms: N2_18  and  C7_27 
REMARK    6  A    between atoms: C4_21  and  O4_22 
REMARK    7  A    between atoms: O4_22  and  C1_30 
REMARK    8  A    between atoms: C5_23  and  C6_25 
REMARK    9  A    between atoms: C2_31  and  N2_32 
REMARK       I    between atoms: N2_32  and  C7_41 
REMARK   10  A    between atoms: C5_37  and  C6_39 
ROOT
HETATM    1  C1  NAG B   2      -0.294  28.321   3.605  1.00 24.54     0.262 C 
HETATM    2  C2  NAG B   2       0.345  29.825   3.438  1.00 38.18     0.195 C 
HETATM    3  C3  NAG B   2      -0.266  30.746   4.541  1.00 40.28     0.209 C 
HETATM    4  O3  NAG B   2       0.174  32.094   4.311  1.00 44.52    -0.218 OA
HETATM    5  C4  NAG B   2      -1.816  30.561   4.362  1.00 31.56     0.180 C 
HETATM    6  C5  NAG B   2      -2.282  29.041   4.593  1.00 25.00     0.180 C 
HETATM    7  O5  NAG B   2      -1.759  28.312   3.413  1.00 56.77    -0.327 OA
ENDROOT
BRANCH   1   8
HETATM    8  O4  NAG B   1       0.298  27.438   2.581  1.00 46.30    -0.327 OA
BRANCH   8   9
HETATM    9  C4  NAG B   1       0.876  26.002   2.858  1.00 41.63     0.180 C 
HETATM   10  C3  NAG B   1      -0.291  25.014   2.504  1.00 14.31     0.209 C 
HETATM   11  C2  NAG B   1       0.284  23.619   2.370  1.00 29.05     0.198 C 
HETATM   12  O3  NAG B   1      -1.257  25.116   3.560  1.00 28.14    -0.218 OA
HETATM   13  C1  NAG B   1       1.517  23.653   1.431  1.00 32.10     0.295 C 
HETATM   14  O1  NAG B   1       1.990  22.310   1.394  1.00 46.64    -0.188 OA
HETATM   15  O5  NAG B   1       2.566  24.399   2.164  1.00 32.95    -0.325 OA
HETATM   16  C5  NAG B   1       2.196  25.827   2.093  1.00 38.82     0.181 C 
BRANCH  11  17
HETATM   17  N2  NAG B   1      -0.710  22.671   1.830  1.00 30.31    -0.232 NA
HETATM   18  C7  NAG B   1      -1.209  21.623   2.532  1.00 19.61     0.252 C 
HETATM   19  O7  NAG B   1      -0.844  21.395   3.593  1.00 24.37    -0.271 OA
HETATM   20  C8  NAG B   1      -2.241  20.847   1.795  1.00 14.43     0.100 C 
ENDBRANCH  11  17
BRANCH  16  21
HETATM   21  C6  NAG B   1       3.342  26.604   2.695  1.00 50.43     0.214 C 
HETATM   22  O6  NAG B   1       3.201  26.817   4.176  1.00 38.95    -0.218 OA
ENDBRANCH  16  21
ENDBRANCH   8   9
ENDBRANCH   1   8
BRANCH   2  23
HETATM   23  N2  NAG B   2       1.805  29.827   3.579  1.00 47.13    -0.232 NA
HETATM   24  C7  NAG B   2       2.663  30.235   2.611  1.00 36.27     0.252 C 
HETATM   25  O7  NAG B   2       2.297  30.538   1.564  1.00 77.29    -0.271 OA
HETATM   26  C8  NAG B   2       4.099  30.259   3.022  1.00 25.48     0.100 C 
ENDBRANCH   2  23
BRANCH   6  27
HETATM   27  C6  NAG B   2      -3.784  28.958   4.595  1.00 41.21     0.214 C 
HETATM   28  O6  NAG B   2      -4.138  27.514   4.321  1.00 29.51    -0.218 OA
ENDBRANCH   6  27
BRANCH   5  29
HETATM   29  O4  NAG B   2      -2.620  31.360   5.279  1.00 37.56    -0.327 OA
BRANCH  29  30
HETATM   30  C1  NAG B   3      -3.033  32.747   5.426  1.00 31.25     0.262 C 
HETATM   31  C2  NAG B   3      -2.117  33.667   6.229  1.00 50.86     0.195 C 
HETATM   32  C3  NAG B   3      -2.793  34.982   6.453  1.00 27.28     0.212 C 
HETATM   33  O3  NAG B   3      -1.794  35.936   6.867  1.00 49.98    -0.218 OA
HETATM   34  C4  NAG B   3      -3.457  35.519   5.150  1.00 62.31     0.214 C 
HETATM   35  O4  NAG B   3      -4.427  36.563   5.503  1.00 75.30    -0.218 OA
HETATM   36  C5  NAG B   3      -4.230  34.462   4.335  1.00 37.66     0.184 C 
HETATM   37  O5  NAG B   3      -3.420  33.298   4.152  1.00 55.96    -0.327 OA
BRANCH  31  38
HETATM   38  N2  NAG B   3      -1.893  32.921   7.552  1.00 55.71    -0.232 NA
HETATM   39  C7  NAG B   3      -0.675  32.746   8.099  1.00 64.76     0.252 C 
HETATM   40  O7  NAG B   3       0.290  32.874   7.483  1.00 66.12    -0.271 OA
HETATM   41  C8  NAG B   3      -0.694  32.400   9.548  1.00 56.03     0.100 C 
ENDBRANCH  31  38
BRANCH  36  42
HETATM   42  C6  NAG B   3      -4.551  34.966   2.935  1.00 49.19     0.214 C 
HETATM   43  O6  NAG B   3      -3.552  34.555   1.952  1.00 68.92    -0.218 OA
ENDBRANCH  36  42
ENDBRANCH  29  30
ENDBRANCH   5  29
TORSDOF 10
ENDMDL
MODEL 5
REMARK VINA RESULT:    -4.919      1.040      2.994
REMARK INTER + INTRA:         -10.005
REMARK INTER:                  -8.079
REMARK INTRA:                  -1.926
REMARK UNBOUND:                -2.210
REMARK  10 active torsions:
REMARK  status: ('A' for Active; 'I' for Inactive)
REMARK    1  A    between atoms: C2_3  and  N2_4 
REMARK       I    between atoms: N2_4  and  C7_13 
REMARK    2  A    between atoms: C4_7  and  O4_8 
REMARK    3  A    between atoms: O4_8  and  C1_16 
REMARK    4  A    between atoms: C5_9  and  C6_11 
REMARK    5  A    between atoms: C2_17  and  N2_18 
REMARK       I    between atoms: N2_18  and  C7_27 
REMARK    6  A    between atoms: C4_21  and  O4_22 
REMARK    7  A    between atoms: O4_22  and  C1_30 
REMARK    8  A    between atoms: C5_23  and  C6_25 
REMARK    9  A    between atoms: C2_31  and  N2_32 
REMARK       I    between atoms: N2_32  and  C7_41 
REMARK   10  A    between atoms: C5_37  and  C6_39 
ROOT
HETATM    1  C1  NAG B   2       9.663  24.724  14.072  1.00 24.54     0.262 C 
HETATM    2  C2  NAG B   2      10.285  25.212  15.512  1.00 38.18     0.195 C 
HETATM    3  C3  NAG B   2      10.331  26.773  15.525  1.00 40.28     0.209 C 
HETATM    4  O3  NAG B   2      11.009  27.203  16.717  1.00 44.52    -0.218 OA
HETATM    5  C4  NAG B   2      11.107  27.133  14.207  1.00 31.56     0.180 C 
HETATM    6  C5  NAG B   2      10.349  26.615  12.889  1.00 25.00     0.180 C 
HETATM    7  O5  NAG B   2      10.503  25.141  12.930  1.00 56.77    -0.327 OA
ENDROOT
BRANCH   1   8
HETATM    8  O4  NAG B   1       9.593  23.249  14.062  1.00 46.30    -0.327 OA
BRANCH   8   9
HETATM    9  C4  NAG B   1       9.821  22.347  12.794  1.00 41.63     0.180 C 
HETATM   10  C3  NAG B   1      10.772  21.195  13.274  1.00 14.31     0.209 C 
HETATM   11  C2  NAG B   1      10.738  20.083  12.246  1.00 29.05     0.198 C 
HETATM   12  O3  NAG B   1      12.078  21.771  13.425  1.00 28.14    -0.218 OA
HETATM   13  C1  NAG B   1       9.267  19.721  11.920  1.00 32.10     0.295 C 
HETATM   14  O1  NAG B   1       9.348  18.695  10.938  1.00 46.64    -0.188 OA
HETATM   15  O5  NAG B   1       8.711  20.889  11.198  1.00 32.95    -0.325 OA
HETATM   16  C5  NAG B   1       8.462  21.934  12.211  1.00 38.82     0.181 C 
BRANCH  11  17
HETATM   17  N2  NAG B   1      11.439  18.876  12.727  1.00 30.31    -0.232 NA
HETATM   18  C7  NAG B   1      12.636  18.459  12.245  1.00 19.61     0.252 C 
HETATM   19  O7  NAG B   1      13.156  19.017  11.392  1.00 24.37    -0.271 OA
HETATM   20  C8  NAG B   1      13.167  17.251  12.930  1.00 14.43     0.100 C 
ENDBRANCH  11  17
BRANCH  16  21
HETATM   21  C6  NAG B   1       7.746  23.061  11.507  1.00 50.43     0.214 C 
HETATM   22  O6  NAG B   1       8.644  23.863  10.607  1.00 38.95    -0.218 OA
ENDBRANCH  16  21
ENDBRANCH   8   9
ENDBRANCH   1   8
BRANCH   2  23
HETATM   23  N2  NAG B   2       9.479  24.755  16.649  1.00 47.13    -0.232 NA
HETATM   24  C7  NAG B   2       9.957  23.993  17.664  1.00 36.27     0.252 C 
HETATM   25  O7  NAG B   2      11.030  23.580  17.659  1.00 77.29    -0.271 OA
HETATM   26  C8  NAG B   2       8.984  23.749  18.770  1.00 25.48     0.100 C 
ENDBRANCH   2  23
BRANCH   6  27
HETATM   27  C6  NAG B   2      11.033  27.146  11.659  1.00 41.21     0.214 C 
HETATM   28  O6  NAG B   2       9.968  27.283  10.596  1.00 29.51    -0.218 OA
ENDBRANCH   6  27
BRANCH   5  29
HETATM   29  O4  NAG B   2      11.308  28.563  14.007  1.00 37.56    -0.327 OA
BRANCH  29  30
HETATM   30  C1  NAG B   3      10.597  29.680  13.408  1.00 31.25     0.262 C 
HETATM   31  C2  NAG B   3      10.011  30.724  14.355  1.00 50.86     0.195 C 
HETATM   32  C3  NAG B   3       9.145  31.673  13.589  1.00 27.28     0.212 C 
HETATM   33  O3  NAG B   3       8.918  32.837  14.408  1.00 49.98    -0.218 OA
HETATM   34  C4  NAG B   3       9.830  32.142  12.269  1.00 62.31     0.214 C 
HETATM   35  O4  NAG B   3       8.813  32.717  11.382  1.00 75.30    -0.218 OA
HETATM   36  C5  NAG B   3      10.526  31.022  11.468  1.00 37.66     0.184 C 
HETATM   37  O5  NAG B   3      11.367  30.253  12.333  1.00 55.96    -0.327 OA
BRANCH  31  38
HETATM   38  N2  NAG B   3       9.189  29.907  15.362  1.00 55.71    -0.232 NA
HETATM   39  C7  NAG B   3       9.104  30.223  16.667  1.00 64.76     0.252 C 
HETATM   40  O7  NAG B   3       9.860  30.931  17.170  1.00 66.12    -0.271 OA
HETATM   41  C8  NAG B   3       7.952  29.601  17.379  1.00 56.03     0.100 C 
ENDBRANCH  31  38
BRANCH  36  42
HETATM   42  C6  NAG B   3      11.446  31.594  10.399  1.00 49.19     0.214 C 
HETATM   43  O6  NAG B   3      11.014  31.247   9.047  1.00 68.92    -0.218 OA
ENDBRANCH  36  42
ENDBRANCH  29  30
ENDBRANCH   5  29
TORSDOF 10
ENDMDL
MODEL 6
REMARK VINA RESULT:    -4.883     13.493     18.120
REMARK INTER + INTRA:          -9.947
REMARK INTER:                  -7.881
REMARK INTRA:                  -2.066
REMARK UNBOUND:                -2.210
REMARK  10 active torsions:
REMARK  status: ('A' for Active; 'I' for Inactive)
REMARK    1  A    between atoms: C2_3  and  N2_4 
REMARK       I    between atoms: N2_4  and  C7_13 
REMARK    2  A    between atoms: C4_7  and  O4_8 
REMARK    3  A    between atoms: O4_8  and  C1_16 
REMARK    4  A    between atoms: C5_9  and  C6_11 
REMARK    5  A    between atoms: C2_17  and  N2_18 
REMARK       I    between atoms: N2_18  and  C7_27 
REMARK    6  A    between atoms: C4_21  and  O4_22 
REMARK    7  A    between atoms: O4_22  and  C1_30 
REMARK    8  A    between atoms: C5_23  and  C6_25 
REMARK    9  A    between atoms: C2_31  and  N2_32 
REMARK       I    between atoms: N2_32  and  C7_41 
REMARK   10  A    between atoms: C5_37  and  C6_39 
ROOT
HETATM    1  C1  NAG B   2      -0.311  30.837   4.749  1.00 24.54     0.262 C 
HETATM    2  C2  NAG B   2       0.863  29.740   4.412  1.00 38.18     0.195 C 
HETATM    3  C3  NAG B   2       0.410  28.895   3.180  1.00 40.28     0.209 C 
HETATM    4  O3  NAG B   2       1.361  27.838   2.971  1.00 44.52    -0.218 OA
HETATM    5  C4  NAG B   2      -1.015  28.373   3.591  1.00 31.56     0.180 C 
HETATM    6  C5  NAG B   2      -2.054  29.571   3.850  1.00 25.00     0.180 C 
HETATM    7  O5  NAG B   2      -1.590  30.194   5.113  1.00 56.77    -0.327 OA
ENDROOT
BRANCH   1   8
HETATM    8  O4  NAG B   1       0.121  31.657   5.898  1.00 46.30    -0.327 OA
BRANCH   8   9
HETATM    9  C4  NAG B   1      -0.614  32.950   6.407  1.00 41.63     0.180 C 
HETATM   10  C3  NAG B   1      -1.436  33.468   5.175  1.00 14.31     0.209 C 
HETATM   11  C2  NAG B   1      -2.462  34.469   5.667  1.00 29.05     0.198 C 
HETATM   12  O3  NAG B   1      -0.494  34.045   4.259  1.00 28.14    -0.218 OA
HETATM   13  C1  NAG B   1      -3.245  33.866   6.861  1.00 32.10     0.295 C 
HETATM   14  O1  NAG B   1      -4.155  34.886   7.258  1.00 46.64    -0.188 OA
HETATM   15  O5  NAG B   1      -2.276  33.774   7.977  1.00 32.95    -0.325 OA
HETATM   16  C5  NAG B   1      -1.401  32.621   7.684  1.00 38.82     0.181 C 
BRANCH  11  17
HETATM   17  N2  NAG B   1      -3.413  34.841   4.601  1.00 30.31    -0.232 NA
HETATM   18  C7  NAG B   1      -3.439  36.059   4.007  1.00 19.61     0.252 C 
HETATM   19  O7  NAG B   1      -2.728  36.894   4.339  1.00 24.37    -0.271 OA
HETATM   20  C8  NAG B   1      -4.447  36.173   2.921  1.00 14.43     0.100 C 
ENDBRANCH  11  17
BRANCH  16  21
HETATM   21  C6  NAG B   1      -0.520  32.423   8.893  1.00 50.43     0.214 C 
HETATM   22  O6  NAG B   1       0.754  33.219   8.836  1.00 38.95    -0.218 OA
ENDBRANCH  16  21
ENDBRANCH   8   9
ENDBRANCH   1   8
BRANCH   2  23
HETATM   23  N2  NAG B   2       2.147  30.377   4.099  1.00 47.13    -0.232 NA
HETATM   24  C7  NAG B   2       3.285  30.186   4.810  1.00 36.27     0.252 C 
HETATM   25  O7  NAG B   2       3.301  29.559   5.774  1.00 77.29    -0.271 OA
HETATM   26  C8  NAG B   2       4.496  30.846   4.236  1.00 25.48     0.100 C 
ENDBRANCH   2  23
BRANCH   6  27
HETATM   27  C6  NAG B   2      -3.437  29.017   4.055  1.00 41.21     0.214 C 
HETATM   28  O6  NAG B   2      -3.889  29.473   5.423  1.00 29.51    -0.218 OA
ENDBRANCH   6  27
BRANCH   5  29
HETATM   29  O4  NAG B   2      -1.646  27.517   2.594  1.00 37.56    -0.327 OA
BRANCH  29  30
HETATM   30  C1  NAG B   3      -1.852  26.096   2.365  1.00 31.25     0.262 C 
HETATM   31  C2  NAG B   3      -2.344  25.675   0.983  1.00 50.86     0.195 C 
HETATM   32  C3  NAG B   3      -2.699  24.222   0.994  1.00 27.28     0.212 C 
HETATM   33  O3  NAG B   3      -2.792  23.771  -0.372  1.00 49.98    -0.218 OA
HETATM   34  C4  NAG B   3      -1.609  23.367   1.707  1.00 62.31     0.214 C 
HETATM   35  O4  NAG B   3      -2.177  22.058   2.050  1.00 75.30    -0.218 OA
HETATM   36  C5  NAG B   3      -1.071  23.969   3.022  1.00 37.66     0.184 C 
HETATM   37  O5  NAG B   3      -0.714  25.339   2.821  1.00 55.96    -0.327 OA
BRANCH  31  38
HETATM   38  N2  NAG B   3      -3.581  26.550   0.735  1.00 55.71    -0.232 NA
HETATM   39  C7  NAG B   3      -3.845  27.127  -0.452  1.00 64.76     0.252 C 
HETATM   40  O7  NAG B   3      -3.033  27.253  -1.260  1.00 66.12    -0.271 OA
HETATM   41  C8  NAG B   3      -5.260  27.559  -0.627  1.00 56.03     0.100 C 
ENDBRANCH  31  38
BRANCH  36  42
HETATM   42  C6  NAG B   3       0.205  23.271   3.471  1.00 49.19     0.214 C 
HETATM   43  O6  NAG B   3       1.377  23.717   2.723  1.00 68.92    -0.218 OA
ENDBRANCH  36  42
ENDBRANCH  29  30
ENDBRANCH   5  29
TORSDOF 10
ENDMDL
MODEL 7
REMARK VINA RESULT:    -4.817     13.850     18.379
REMARK INTER + INTRA:          -9.842
REMARK INTER:                  -7.777
REMARK INTRA:                  -2.066
REMARK UNBOUND:                -2.210
REMARK  10 active torsions:
REMARK  status: ('A' for Active; 'I' for Inactive)
REMARK    1  A    between atoms: C2_3  and  N2_4 
REMARK       I    between atoms: N2_4  and  C7_13 
REMARK    2  A    between atoms: C4_7  and  O4_8 
REMARK    3  A    between atoms: O4_8  and  C1_16 
REMARK    4  A    between atoms: C5_9  and  C6_11 
REMARK    5  A    between atoms: C2_17  and  N2_18 
REMARK       I    between atoms: N2_18  and  C7_27 
REMARK    6  A    between atoms: C4_21  and  O4_22 
REMARK    7  A    between atoms: O4_22  and  C1_30 
REMARK    8  A    between atoms: C5_23  and  C6_25 
REMARK    9  A    between atoms: C2_31  and  N2_32 
REMARK       I    between atoms: N2_32  and  C7_41 
REMARK   10  A    between atoms: C5_37  and  C6_39 
ROOT
HETATM    1  C1  NAG B   2      -0.280  30.486   4.103  1.00 24.54     0.262 C 
HETATM    2  C2  NAG B   2       0.792  29.272   3.832  1.00 38.18     0.195 C 
HETATM    3  C3  NAG B   2       0.089  28.178   2.966  1.00 40.28     0.209 C 
HETATM    4  O3  NAG B   2       0.969  27.048   2.850  1.00 44.52    -0.218 OA
HETATM    5  C4  NAG B   2      -1.226  27.860   3.766  1.00 31.56     0.180 C 
HETATM    6  C5  NAG B   2      -2.180  29.143   3.913  1.00 25.00     0.180 C 
HETATM    7  O5  NAG B   2      -1.463  30.029   4.861  1.00 56.77    -0.327 OA
ENDROOT
BRANCH   1   8
HETATM    8  O4  NAG B   1       0.385  31.536   4.900  1.00 46.30    -0.327 OA
BRANCH   8   9
HETATM    9  C4  NAG B   1      -0.351  32.741   5.592  1.00 41.63     0.180 C 
HETATM   10  C3  NAG B   1      -1.608  33.026   4.696  1.00 14.31     0.209 C 
HETATM   11  C2  NAG B   1      -2.569  33.896   5.479  1.00 29.05     0.198 C 
HETATM   12  O3  NAG B   1      -1.131  33.661   3.502  1.00 28.14    -0.218 OA
HETATM   13  C1  NAG B   1      -2.802  33.283   6.883  1.00 32.10     0.295 C 
HETATM   14  O1  NAG B   1      -3.691  34.182   7.536  1.00 46.64    -0.188 OA
HETATM   15  O5  NAG B   1      -1.520  33.430   7.609  1.00 32.95    -0.325 OA
HETATM   16  C5  NAG B   1      -0.608  32.403   7.069  1.00 38.82     0.181 C 
BRANCH  11  17
HETATM   17  N2  NAG B   1      -3.866  34.031   4.786  1.00 30.31    -0.232 NA
HETATM   18  C7  NAG B   1      -4.308  35.189   4.235  1.00 19.61     0.252 C 
HETATM   19  O7  NAG B   1      -3.695  36.153   4.314  1.00 24.37    -0.271 OA
HETATM   20  C8  NAG B   1      -5.617  35.059   3.542  1.00 14.43     0.100 C 
ENDBRANCH  11  17
BRANCH  16  21
HETATM   21  C6  NAG B   1       0.642  32.440   7.915  1.00 50.43     0.214 C 
HETATM   22  O6  NAG B   1       1.660  33.432   7.426  1.00 38.95    -0.218 OA
ENDBRANCH  16  21
ENDBRANCH   8   9
ENDBRANCH   1   8
BRANCH   2  23
HETATM   23  N2  NAG B   2       1.989  29.735   3.123  1.00 47.13    -0.232 NA
HETATM   24  C7  NAG B   2       3.214  29.852   3.694  1.00 36.27     0.252 C 
HETATM   25  O7  NAG B   2       3.381  29.666   4.816  1.00 77.29    -0.271 OA
HETATM   26  C8  NAG B   2       4.307  30.231   2.749  1.00 25.48     0.100 C 
ENDBRANCH   2  23
BRANCH   6  27
HETATM   27  C6  NAG B   2      -3.497  28.741   4.517  1.00 41.21     0.214 C 
HETATM   28  O6  NAG B   2      -3.837  29.787   5.552  1.00 29.51    -0.218 OA
ENDBRANCH   6  27
BRANCH   5  29
HETATM   29  O4  NAG B   2      -2.054  26.824   3.161  1.00 37.56    -0.327 OA
BRANCH  29  30
HETATM   30  C1  NAG B   3      -2.427  26.381   1.828  1.00 31.25     0.262 C 
HETATM   31  C2  NAG B   3      -2.274  24.894   1.517  1.00 50.86     0.195 C 
HETATM   32  C3  NAG B   3      -2.498  24.657   0.057  1.00 27.28     0.212 C 
HETATM   33  O3  NAG B   3      -2.721  23.246  -0.141  1.00 49.98    -0.218 OA
HETATM   34  C4  NAG B   3      -3.754  25.418  -0.465  1.00 62.31     0.214 C 
HETATM   35  O4  NAG B   3      -3.694  25.491  -1.929  1.00 75.30    -0.218 OA
HETATM   36  C5  NAG B   3      -3.887  26.869   0.040  1.00 37.66     0.184 C 
HETATM   37  O5  NAG B   3      -3.715  26.911   1.459  1.00 55.96    -0.327 OA
BRANCH  31  38
HETATM   38  N2  NAG B   3      -0.829  24.566   1.921  1.00 55.71    -0.232 NA
HETATM   39  C7  NAG B   3      -0.518  23.624   2.830  1.00 64.76     0.252 C 
HETATM   40  O7  NAG B   3      -1.298  23.215   3.572  1.00 66.12    -0.271 OA
HETATM   41  C8  NAG B   3       0.896  23.155   2.772  1.00 56.03     0.100 C 
ENDBRANCH  31  38
BRANCH  36  42
HETATM   42  C6  NAG B   3      -5.280  27.424  -0.224  1.00 49.19     0.214 C 
HETATM   43  O6  NAG B   3      -5.288  28.433  -1.279  1.00 68.92    -0.218 OA
ENDBRANCH  36  42
ENDBRANCH  29  30
ENDBRANCH   5  29
TORSDOF 10
ENDMDL
MODEL 8
REMARK VINA RESULT:    -4.758     20.206     22.799
REMARK INTER + INTRA:          -9.749
REMARK INTER:                  -7.278
REMARK INTRA:                  -2.471
REMARK UNBOUND:                -2.210
REMARK  10 active torsions:
REMARK  status: ('A' for Active; 'I' for Inactive)
REMARK    1  A    between atoms: C2_3  and  N2_4 
REMARK       I    between atoms: N2_4  and  C7_13 
REMARK    2  A    between atoms: C4_7  and  O4_8 
REMARK    3  A    between atoms: O4_8  and  C1_16 
REMARK    4  A    between atoms: C5_9  and  C6_11 
REMARK    5  A    between atoms: C2_17  and  N2_18 
REMARK       I    between atoms: N2_18  and  C7_27 
REMARK    6  A    between atoms: C4_21  and  O4_22 
REMARK    7  A    between atoms: O4_22  and  C1_30 
REMARK    8  A    between atoms: C5_23  and  C6_25 
REMARK    9  A    between atoms: C2_31  and  N2_32 
REMARK       I    between atoms: N2_32  and  C7_41 
REMARK   10  A    between atoms: C5_37  and  C6_39 
ROOT
HETATM    1  C1  NAG B   2      -9.776  35.358  15.320  1.00 24.54     0.262 C 
HETATM    2  C2  NAG B   2      -8.484  35.621  16.300  1.00 38.18     0.195 C 
HETATM    3  C3  NAG B   2      -8.462  37.133  16.692  1.00 40.28     0.209 C 
HETATM    4  O3  NAG B   2      -7.256  37.400  17.426  1.00 44.52    -0.218 OA
HETATM    5  C4  NAG B   2      -8.523  37.876  15.308  1.00 31.56     0.180 C 
HETATM    6  C5  NAG B   2      -9.864  37.538  14.490  1.00 25.00     0.180 C 
HETATM    7  O5  NAG B   2      -9.690  36.129  14.063  1.00 56.77    -0.327 OA
ENDROOT
BRANCH   1   8
HETATM    8  O4  NAG B   1      -9.818  33.925  14.966  1.00 46.30    -0.327 OA
BRANCH   8   9
HETATM    9  C4  NAG B   1     -11.126  33.058  14.884  1.00 41.63     0.180 C 
HETATM   10  C3  NAG B   1     -11.806  33.204  16.291  1.00 14.31     0.209 C 
HETATM   11  C2  NAG B   1     -13.240  32.729  16.185  1.00 29.05     0.198 C 
HETATM   12  O3  NAG B   1     -11.030  32.423  17.211  1.00 28.14    -0.218 OA
HETATM   13  C1  NAG B   1     -13.925  33.410  14.973  1.00 32.10     0.295 C 
HETATM   14  O1  NAG B   1     -15.247  32.881  14.950  1.00 46.64    -0.188 OA
HETATM   15  O5  NAG B   1     -13.275  32.847  13.768  1.00 32.95    -0.325 OA
HETATM   16  C5  NAG B   1     -11.950  33.490  13.662  1.00 38.82     0.181 C 
BRANCH  11  17
HETATM   17  N2  NAG B   1     -14.006  33.033  17.410  1.00 30.31    -0.232 NA
HETATM   18  C7  NAG B   1     -14.580  32.087  18.193  1.00 19.61     0.252 C 
HETATM   19  O7  NAG B   1     -14.529  30.978  17.914  1.00 24.37    -0.271 OA
HETATM   20  C8  NAG B   1     -15.246  32.636  19.403  1.00 14.43     0.100 C 
ENDBRANCH  11  17
BRANCH  16  21
HETATM   21  C6  NAG B   1     -11.351  33.042  12.351  1.00 50.43     0.214 C 
HETATM   22  O6  NAG B   1     -10.496  34.093  11.699  1.00 38.95    -0.218 OA
ENDBRANCH  16  21
ENDBRANCH   8   9
ENDBRANCH   1   8
BRANCH   2  23
HETATM   23  N2  NAG B   2      -8.543  34.819  17.526  1.00 47.13    -0.232 NA
HETATM   24  C7  NAG B   2      -7.514  34.074  18.000  1.00 36.27     0.252 C 
HETATM   25  O7  NAG B   2      -6.530  33.959  17.416  1.00 77.29    -0.271 OA
HETATM   26  C8  NAG B   2      -7.766  33.435  19.326  1.00 25.48     0.100 C 
ENDBRANCH   2  23
BRANCH   6  27
HETATM   27  C6  NAG B   2      -9.958  38.413  13.271  1.00 41.21     0.214 C 
HETATM   28  O6  NAG B   2      -9.034  37.814  12.235  1.00 29.51    -0.218 OA
ENDBRANCH   6  27
BRANCH   5  29
HETATM   29  O4  NAG B   2      -8.484  39.329  15.411  1.00 37.56    -0.327 OA
BRANCH  29  30
HETATM   30  C1  NAG B   3      -7.607  40.417  15.009  1.00 31.25     0.262 C 
HETATM   31  C2  NAG B   3      -6.427  40.737  15.923  1.00 50.86     0.195 C 
HETATM   32  C3  NAG B   3      -5.766  42.001  15.472  1.00 27.28     0.212 C 
HETATM   33  O3  NAG B   3      -4.467  42.077  16.092  1.00 49.98    -0.218 OA
HETATM   34  C4  NAG B   3      -5.561  42.025  13.927  1.00 62.31     0.214 C 
HETATM   35  O4  NAG B   3      -5.304  43.405  13.501  1.00 75.30    -0.218 OA
HETATM   36  C5  NAG B   3      -6.770  41.532  13.106  1.00 37.66     0.184 C 
HETATM   37  O5  NAG B   3      -7.235  40.282  13.623  1.00 55.96    -0.327 OA
BRANCH  31  38
HETATM   38  N2  NAG B   3      -7.055  40.902  17.314  1.00 55.71    -0.232 NA
HETATM   39  C7  NAG B   3      -6.401  40.609  18.454  1.00 64.76     0.252 C 
HETATM   40  O7  NAG B   3      -5.459  39.947  18.459  1.00 66.12    -0.271 OA
HETATM   41  C8  NAG B   3      -6.988  41.225  19.677  1.00 56.03     0.100 C 
ENDBRANCH  31  38
BRANCH  36  42
HETATM   42  C6  NAG B   3      -6.384  41.261  11.658  1.00 49.19     0.214 C 
HETATM   43  O6  NAG B   3      -7.446  40.589  10.915  1.00 68.92    -0.218 OA
ENDBRANCH  36  42
ENDBRANCH  29  30
ENDBRANCH   5  29
TORSDOF 10
ENDMDL
MODEL 9
REMARK VINA RESULT:    -4.669      2.801     10.041
REMARK INTER + INTRA:          -9.609
REMARK INTER:                  -7.059
REMARK INTRA:                  -2.550
REMARK UNBOUND:                -2.210
REMARK  10 active torsions:
REMARK  status: ('A' for Active; 'I' for Inactive)
REMARK    1  A    between atoms: C2_3  and  N2_4 
REMARK       I    between atoms: N2_4  and  C7_13 
REMARK    2  A    between atoms: C4_7  and  O4_8 
REMARK    3  A    between atoms: O4_8  and  C1_16 
REMARK    4  A    between atoms: C5_9  and  C6_11 
REMARK    5  A    between atoms: C2_17  and  N2_18 
REMARK       I    between atoms: N2_18  and  C7_27 
REMARK    6  A    between atoms: C4_21  and  O4_22 
REMARK    7  A    between atoms: O4_22  and  C1_30 
REMARK    8  A    between atoms: C5_23  and  C6_25 
REMARK    9  A    between atoms: C2_31  and  N2_32 
REMARK       I    between atoms: N2_32  and  C7_41 
REMARK   10  A    between atoms: C5_37  and  C6_39 
ROOT
HETATM    1  C1  NAG B   2      10.644  24.351  13.588  1.00 24.54     0.262 C 
HETATM    2  C2  NAG B   2      11.007  24.911  12.088  1.00 38.18     0.195 C 
HETATM    3  C3  NAG B   2      10.208  24.073  11.041  1.00 40.28     0.209 C 
HETATM    4  O3  NAG B   2      10.632  24.457   9.723  1.00 44.52    -0.218 OA
HETATM    5  C4  NAG B   2      10.572  22.586  11.400  1.00 31.56     0.180 C 
HETATM    6  C5  NAG B   2      10.119  22.187  12.888  1.00 25.00     0.180 C 
HETATM    7  O5  NAG B   2      11.043  22.940  13.770  1.00 56.77    -0.327 OA
ENDROOT
BRANCH   1   8
HETATM    8  O4  NAG B   1      11.377  25.156  14.586  1.00 46.30    -0.327 OA
BRANCH   8   9
HETATM    9  C4  NAG B   1      10.742  25.773  15.884  1.00 41.63     0.180 C 
HETATM   10  C3  NAG B   1      10.038  27.093  15.410  1.00 14.31     0.209 C 
HETATM   11  C2  NAG B   1       9.087  27.549  16.498  1.00 29.05     0.198 C 
HETATM   12  O3  NAG B   1      11.077  28.047  15.147  1.00 28.14    -0.218 OA
HETATM   13  C1  NAG B   1       8.189  26.363  16.934  1.00 32.10     0.295 C 
HETATM   14  O1  NAG B   1       7.359  26.888  17.965  1.00 46.64    -0.188 OA
HETATM   15  O5  NAG B   1       9.085  25.407  17.624  1.00 32.95    -0.325 OA
HETATM   16  C5  NAG B   1       9.861  24.720  16.573  1.00 38.82     0.181 C 
BRANCH  11  17
HETATM   17  N2  NAG B   1       8.232  28.663  16.041  1.00 30.31    -0.232 NA
HETATM   18  C7  NAG B   1       8.222  29.889  16.619  1.00 19.61     0.252 C 
HETATM   19  O7  NAG B   1       8.866  30.115  17.538  1.00 24.37    -0.271 OA
HETATM   20  C8  NAG B   1       7.321  30.860  15.944  1.00 14.43     0.100 C 
ENDBRANCH  11  17
BRANCH  16  21
HETATM   21  C6  NAG B   1      10.655  23.634  17.257  1.00 50.43     0.214 C 
HETATM   22  O6  NAG B   1       9.981  23.090  18.485  1.00 38.95    -0.218 OA
ENDBRANCH  16  21
ENDBRANCH   8   9
ENDBRANCH   1   8
BRANCH   2  23
HETATM   23  N2  NAG B   2      10.658  26.326  11.923  1.00 47.13    -0.232 NA
HETATM   24  C7  NAG B   2      11.562  27.314  11.709  1.00 36.27     0.252 C 
HETATM   25  O7  NAG B   2      12.694  27.114  11.721  1.00 77.29    -0.271 OA
HETATM   26  C8  NAG B   2      10.965  28.659  11.455  1.00 25.48     0.100 C 
ENDBRANCH   2  23
BRANCH   6  27
HETATM   27  C6  NAG B   2      10.320  20.713  13.110  1.00 41.21     0.214 C 
HETATM   28  O6  NAG B   2       8.973  20.145  13.495  1.00 29.51    -0.218 OA
ENDBRANCH   6  27
BRANCH   5  29
HETATM   29  O4  NAG B   2       9.958  21.595  10.525  1.00 37.56    -0.327 OA
BRANCH  29  30
HETATM   30  C1  NAG B   3      10.214  20.996   9.225  1.00 31.25     0.262 C 
HETATM   31  C2  NAG B   3       9.804  19.538   9.035  1.00 50.86     0.195 C 
HETATM   32  C3  NAG B   3      10.327  19.032   7.728  1.00 27.28     0.212 C 
HETATM   33  O3  NAG B   3       9.627  17.815   7.404  1.00 49.98    -0.218 OA
HETATM   34  C4  NAG B   3      10.078  20.049   6.574  1.00 62.31     0.214 C 
HETATM   35  O4  NAG B   3      10.946  19.709   5.441  1.00 75.30    -0.218 OA
HETATM   36  C5  NAG B   3      10.381  21.519   6.930  1.00 37.66     0.184 C 
HETATM   37  O5  NAG B   3       9.752  21.861   8.169  1.00 55.96    -0.327 OA
BRANCH  31  38
HETATM   38  N2  NAG B   3      10.450  18.803  10.217  1.00 55.71    -0.232 NA
HETATM   39  C7  NAG B   3       9.807  17.865  10.937  1.00 64.76     0.252 C 
HETATM   40  O7  NAG B   3       8.660  17.762  10.914  1.00 66.12    -0.271 OA
HETATM   41  C8  NAG B   3      10.702  16.978  11.734  1.00 56.03     0.100 C 
ENDBRANCH  31  38
BRANCH  36  42
HETATM   42  C6  NAG B   3       9.799  22.473   5.895  1.00 49.19     0.214 C 
HETATM   43  O6  NAG B   3       8.951  23.498   6.497  1.00 68.92    -0.218 OA
ENDBRANCH  36  42
ENDBRANCH  29  30
ENDBRANCH   5  29
TORSDOF 10
ENDMDL
