@<TRIPOS>MOLECULE
*****
 85 87 0 0 0
SMALL
GASTEIGER

@<TRIPOS>ATOM
      1  C1         9.8472  -36.2235   -7.5417 C.3     1  STM1       -0.0357
      2  N1         9.5781  -29.0485   -1.7830 N.3     1  STM1       -0.2816
      3  O1         8.8052  -34.1183   -6.9163 O.3     1  STM1       -0.3427
      4  C2         9.9308  -34.6844   -7.6185 C.3     1  STM1        0.0924
      5  N2        11.2582  -27.2745   -1.7515 N.3     1  STM1       -0.3034
      6  O2         9.5982  -31.8718   -6.7678 O.3     1  STM1       -0.3411
      7  C3         9.8642  -34.0665   -9.0457 C.3     1  STM1        0.1454
      8  N3        11.6962  -29.3375   -0.6063 N.3     1  STM1       -0.3034
      9  O3         9.7056  -33.3048   -4.2268 O.3     1  STM1       -0.3865
     10  C4         8.8897  -32.8654   -8.8789 C.3     1  STM1        0.1455
     11  N4         8.7907  -29.1974   -6.7232 N.3     1  STM1       -0.2816
     12  O4        10.5243  -31.7998   -1.9694 O.3     1  STM1       -0.3875
     13  C5         8.6231  -32.7655   -7.3683 C.3     1  STM1        0.1890
     14  N5         8.6241  -27.4930   -8.4052 N.3     1  STM1       -0.3034
     15  O5         9.4762  -27.6649   -4.2866 O.3     1  STM1       -0.3885
     16  C6         9.2269  -31.2753   -5.4915 C.3     1  STM1        0.1078
     17  N6        10.6668  -28.7201   -8.1736 N.3     1  STM1       -0.3034
     18  O6         7.6106  -33.0842   -9.5277 O.3     1  STM1       -0.3384
     19  C7         9.5430  -29.7639   -5.5751 C.3     1  STM1        0.0664
     20  N7         7.1571  -33.4454  -12.1840 N.3     1  STM1       -0.3099
     21  O7         5.7062  -31.7080  -10.0209 O.3     1  STM1       -0.3415
     22  C8         9.1823  -29.0661   -4.2345 C.3     1  STM1        0.0909
     23  O8         5.7450  -28.1166   -9.4559 O.3     1  STM1       -0.3924
     24  C9         9.9790  -29.6947   -3.0626 C.3     1  STM1        0.0660
     25  O9         5.2220  -28.9648  -12.4092 O.3     1  STM1       -0.3865
     26  C10        9.7108  -31.2205   -2.9938 C.3     1  STM1        0.1013
     27  O10        7.1316  -30.5680  -13.6976 O.3     1  STM1       -0.3874
     28  C11       10.0349  -31.9173   -4.3370 C.3     1  STM1        0.1102
     29  O11       11.6824  -32.2992   -9.1067 O.3     1  STM1       -0.3920
     30  C12       10.6514  -28.3847   -1.0035 C.3     1  STM1        0.1088
     31  O12        9.3760  -35.0129  -10.0251 O.3     1  STM1       -0.3810
     32  C13        9.5248  -28.1426   -7.4461 C.3     1  STM1        0.1088
     33  C14        7.1214  -31.9187  -10.2311 C.3     1  STM1        0.1780
     34  C15        7.3829  -32.0442  -11.7546 C.3     1  STM1        0.0876
     35  C16        6.4577  -31.0668  -12.5389 C.3     1  STM1        0.1035
     36  C17        6.0330  -29.8704  -11.6518 C.3     1  STM1        0.1109
     37  C18        5.2608  -30.3675  -10.3860 C.3     1  STM1        0.1129
     38  C19        5.4514  -29.4748   -9.1292 C.3     1  STM1        0.0730
     39  C20        7.7388  -33.7741  -13.4991 C.3     1  STM1       -0.0153
     40  C21       11.2804  -33.6192   -9.5261 C.3     1  STM1        0.0780
     41  H01        8.8867  -36.5837   -7.9184 H       1  STM1        0.0255
     42  H02       10.6488  -36.6831   -8.1239 H       1  STM1        0.0255
     43  H03        9.9458  -36.5520   -6.5047 H       1  STM1        0.0255
     44  H04        8.8035  -28.4078   -1.9429 H       1  STM1        0.1250
     45  H05       10.8392  -34.3432   -7.1125 H       1  STM1        0.0624
     46  H06       10.5680  -26.5494   -1.9345 H       1  STM1        0.1209
     47  H07       11.9982  -26.8472   -1.1966 H       1  STM1        0.1209
     48  H08       11.2808  -30.1038   -0.0790 H       1  STM1        0.1209
     49  H09       12.1217  -29.7524   -1.4327 H       1  STM1        0.1209
     50  H10        9.6700  -33.5520   -3.2870 H       1  STM1        0.2100
     51  H11        9.3342  -31.9406   -9.2529 H       1  STM1        0.0679
     52  H12        8.5840  -29.9484   -7.3766 H       1  STM1        0.1250
     53  H13       10.7070  -32.7230   -2.2080 H       1  STM1        0.2100
     54  H14        7.6023  -32.4187   -7.1449 H       1  STM1        0.0938
     55  H15        9.1099  -26.7382   -8.8866 H       1  STM1        0.1209
     56  H16        8.3191  -28.1560   -9.1140 H       1  STM1        0.1209
     57  H17        9.4900  -27.3230   -3.3680 H       1  STM1        0.2099
     58  H18        8.1557  -31.4129   -5.3136 H       1  STM1        0.0640
     59  H19       10.3515  -29.4073   -8.8549 H       1  STM1        0.1209
     60  H20       11.1705  -27.9953   -8.6813 H       1  STM1        0.1209
     61  H21       10.6184  -29.6611   -5.7496 H       1  STM1        0.0514
     62  H22        7.5593  -34.0636  -11.4793 H       1  STM1        0.1221
     63  H23        8.1119  -29.1913   -4.0454 H       1  STM1        0.0626
     64  H24        6.3760  -27.7770   -8.7930 H       1  STM1        0.2095
     65  H25       11.0467  -29.5383   -3.2461 H       1  STM1        0.0513
     66  H26        4.9800  -29.3870  -13.2530 H       1  STM1        0.2100
     67  H27        8.6573  -31.3892   -2.7503 H       1  STM1        0.0636
     68  H28        7.4300  -29.6640  -13.4900 H       1  STM1        0.2100
     69  H29       11.1041  -31.8186   -4.5481 H       1  STM1        0.0646
     70  H30       11.3710  -32.0900   -8.2040 H       1  STM1        0.2095
     71  H31       10.2061  -27.9781   -0.0883 H       1  STM1        0.0800
     72  H32        8.8500  -35.7230   -9.6000 H       1  STM1        0.2105
     73  H33        9.8848  -27.3926   -6.7323 H       1  STM1        0.0800
     74  H34        7.6311  -31.0306   -9.8262 H       1  STM1        0.0927
     75  H35        8.4312  -31.7818  -11.9253 H       1  STM1        0.0537
     76  H36        5.5565  -31.6045  -12.8488 H       1  STM1        0.0637
     77  H37        6.9383  -29.3424  -11.3379 H       1  STM1        0.0646
     78  H38        4.1933  -30.4263  -10.6173 H       1  STM1        0.0647
     79  H39        4.5402  -29.5095   -8.5259 H       1  STM1        0.0584
     80  H40        6.2712  -29.8634   -8.5198 H       1  STM1        0.0584
     81  H41        8.8191  -33.6067  -13.4818 H       1  STM1        0.0388
     82  H42        7.5482  -34.8266  -13.7243 H       1  STM1        0.0388
     83  H43        7.2879  -33.1600  -14.2824 H       1  STM1        0.0388
     84  H44       11.3011  -33.6347  -10.6196 H       1  STM1        0.0587
     85  H45       12.0205  -34.3440   -9.1761 H       1  STM1        0.0587
@<TRIPOS>BOND
     1    83    39    1
     2    27    68    1
     3    27    35    1
     4    82    39    1
     5    66    25    1
     6    39    81    1
     7    39    20    1
     8    76    35    1
     9    35    36    1
    10    35    34    1
    11    25    36    1
    12    20    34    1
    13    20    62    1
    14    75    34    1
    15    36    77    1
    16    36    37    1
    17    34    33    1
    18    78    37    1
    19    37    21    1
    20    37    38    1
    21    84    40    1
    22    33    21    1
    23    33    74    1
    24    33    18    1
    25    31    72    1
    26    31     7    1
    27    23    38    1
    28    23    64    1
    29    60    17    1
    30    56    14    1
    31    18    10    1
    32    40    29    1
    33    40     7    1
    34    40    85    1
    35    38    79    1
    36    38    80    1
    37    51    10    1
    38    29    70    1
    39     7    10    1
    40     7     4    1
    41    10    13    1
    42    55    14    1
    43    17    59    1
    44    17    32    1
    45    14    32    1
    46    42     1    1
    47    41     1    1
    48    32    73    1
    49    32    11    1
    50     1     4    1
    51     1    43    1
    52     4    45    1
    53     4     3    1
    54    13    54    1
    55    13     3    1
    56    13     6    1
    57    52    11    1
    58    11    19    1
    59     6    16    1
    60    61    19    1
    61    19    16    1
    62    19    22    1
    63    16    58    1
    64    16    28    1
    65    69    28    1
    66    28     9    1
    67    28    26    1
    68    15    22    1
    69    15    57    1
    70     9    50    1
    71    22    63    1
    72    22    24    1
    73    65    24    1
    74    24    26    1
    75    24     2    1
    76    26    67    1
    77    26    12    1
    78    46     5    1
    79    53    12    1
    80     5    47    1
    81     5    30    1
    82    44     2    1
    83     2    30    1
    84    49     8    1
    85    30     8    1
    86    30    71    1
    87     8    48    1
