MODEL 1
REMARK VINA RESULT:    -6.488      0.000      0.000
REMARK INTER + INTRA:          -8.378
REMARK INTER:                  -8.194
REMARK INTRA:                  -0.184
REMARK UNBOUND:                -0.184
REMARK  6 active torsions:
REMARK  status: ('A' for Active; 'I' for Inactive)
REMARK    1  A    between atoms: C3_3  and  N1_4 
REMARK    2  A    between atoms: C5_6  and  C17_22 
REMARK    3  A    between atoms: C6_7  and  O1_8 
REMARK    4  A    between atoms: C10_12  and  N2_15 
REMARK    5  A    between atoms: C17_22  and  O2_23 
REMARK    6  A    between atoms: C17_22  and  O3_24 
ROOT
HETATM    1  N1  CIP     1     -28.547  -6.251 -10.979  1.00  0.00     0.099 N 
HETATM    2  C4  CIP     1     -28.881  -5.099 -11.866  1.00  0.00     0.285 C 
HETATM    3  C5  CIP     1     -30.186  -4.321 -11.510  1.00  0.00     0.098 C 
HETATM    4  C6  CIP     1     -30.285  -3.962  -9.989  1.00  0.00     0.135 C 
HETATM    5  C7  CIP     1     -29.186  -4.663  -9.160  1.00  0.00     0.051 C 
HETATM    6  C8  CIP     1     -29.380  -4.498  -7.628  1.00  0.00     0.049 C 
HETATM    7  C9  CIP     1     -29.906  -5.769  -6.946  1.00  0.00     0.204 C 
HETATM    8  C10 CIP     1     -29.001  -7.026  -7.204  1.00  0.00     0.258 C 
HETATM    9  C11 CIP     1     -28.258  -6.910  -8.576  1.00  0.00     0.075 C 
HETATM   10  C12 CIP     1     -29.108  -6.143  -9.606  1.00  0.00     0.232 C 
HETATM   11  F1  CIP     1     -30.059  -5.499  -5.597  1.00  0.00    -0.247 F 
ENDROOT
BRANCH   8  12
HETATM   12  N2  CIP     1     -28.095  -7.285  -6.039  1.00  0.00     0.099 N 
HETATM   13  C13 CIP     1     -28.562  -8.444  -5.221  1.00  0.00     0.302 C 
HETATM   14  C14 CIP     1     -27.667  -9.683  -5.367  1.00  0.00     0.299 C 
HETATM   15  N3  CIP     1     -26.284  -9.405  -4.950  1.00  0.00     0.086 N 
HETATM   16  C15 CIP     1     -25.845  -8.030  -5.247  1.00  0.00     0.299 C 
HETATM   17  H13 CIP     1     -25.654 -10.075  -5.453  1.00  0.00     0.315 HD
HETATM   18  C16 CIP     1     -26.653  -7.392  -6.386  1.00  0.00     0.302 C 
ENDBRANCH   8  12
BRANCH   1  19
HETATM   19  C3  CIP     1     -28.917  -7.532 -11.614  1.00  0.00     0.223 A 
HETATM   20  C1  CIP     1     -27.764  -8.524 -11.708  1.00  0.00     0.038 A 
HETATM   21  C2  CIP     1     -28.231  -7.794 -12.950  1.00  0.00     0.038 A 
ENDBRANCH   1  19
BRANCH   4  22
HETATM   22  O1  CIP     1     -30.231  -2.568  -9.800  1.00  0.00    -0.395 OA
HETATM   23  H4  CIP     1     -29.766  -2.400  -8.938  1.00  0.00     0.210 HD
ENDBRANCH   4  22
BRANCH   3  24
HETATM   24  C17 CIP     1     -31.489  -4.973 -12.045  1.00  0.00     0.262 C 
BRANCH  24  25
HETATM   25  O2  CIP     1     -32.547  -4.816 -11.131  1.00  0.00    -0.371 OA
HETATM   26  H12 CIP     1     -33.354  -4.553 -11.642  1.00  0.00     0.212 HD
ENDBRANCH  24  25
BRANCH  24  27
HETATM   27  O3  CIP     1     -31.838  -4.471 -13.308  1.00  0.00    -0.371 OA
HETATM   28  H18 CIP     1     -32.273  -5.216 -13.798  1.00  0.00     0.212 HD
ENDBRANCH  24  27
ENDBRANCH   3  24
TORSDOF 6
ENDMDL
