MODEL 1
REMARK VINA RESULT:    -6.633      0.000      0.000
REMARK INTER + INTRA:          -8.610
REMARK INTER:                  -7.991
REMARK INTRA:                  -0.619
REMARK UNBOUND:                -0.619
REMARK  5 active torsions:
REMARK  status: ('A' for Active; 'I' for Inactive)
REMARK    1  A    between atoms: C7_9  and  C18_24 
REMARK    2  A    between atoms: C8_10  and  O2_11 
REMARK    3  A    between atoms: C12_15  and  N2_16 
REMARK    4  A    between atoms: C18_24  and  O3_25 
REMARK    5  A    between atoms: C18_24  and  O4_26 
ROOT
HETATM    1  C1  LEV     1     -28.290  -8.473  -6.478  1.00  0.00     0.045 C 
HETATM    2  C2  LEV     1     -27.661  -7.102  -6.734  1.00  0.00     0.243 C 
HETATM    3  C3  LEV     1     -26.973  -7.074  -8.124  1.00  0.00     0.203 C 
HETATM    4  O1  LEV     1     -27.898  -7.077  -9.197  1.00  0.00    -0.379 OA
HETATM    5  C4  LEV     1     -28.956  -6.133  -9.047  1.00  0.00     0.191 C 
HETATM    6  C5  LEV     1     -28.842  -5.219  -7.797  1.00  0.00     0.261 C 
HETATM    7  N1  LEV     1     -28.717  -6.062  -6.595  1.00  0.00     0.103 N 
HETATM    8  C6  LEV     1     -28.509  -5.229  -5.392  1.00  0.00     0.285 C 
HETATM    9  C7  LEV     1     -29.720  -4.297  -5.165  1.00  0.00     0.098 C 
HETATM   10  C8  LEV     1     -29.968  -3.422  -6.422  1.00  0.00     0.135 C 
HETATM   11  C9  LEV     1     -30.084  -4.305  -7.687  1.00  0.00     0.054 C 
HETATM   12  C10 LEV     1     -30.225  -3.446  -8.965  1.00  0.00     0.049 C 
HETATM   13  C11 LEV     1     -30.309  -4.326 -10.223  1.00  0.00     0.206 C 
HETATM   14  C12 LEV     1     -29.066  -5.257 -10.317  1.00  0.00     0.287 C 
HETATM   15  F1  LEV     1     -31.486  -5.053 -10.162  1.00  0.00    -0.247 F 
ENDROOT
BRANCH  14  16
HETATM   16  N2  LEV     1     -28.989  -6.081 -11.556  1.00  0.00     0.102 N 
HETATM   17  C13 LEV     1     -29.883  -7.253 -11.603  1.00  0.00     0.303 C 
HETATM   18  C14 LEV     1     -29.512  -8.131 -12.806  1.00  0.00     0.302 C 
HETATM   19  N3  LEV     1     -29.546  -7.382 -14.079  1.00  0.00     0.087 N 
HETATM   20  C15 LEV     1     -28.771  -6.126 -14.008  1.00  0.00     0.302 C 
HETATM   21  C17 LEV     1     -30.918  -7.166 -14.572  1.00  0.00     0.310 C 
HETATM   22  C16 LEV     1     -29.136  -5.276 -12.782  1.00  0.00     0.303 C 
ENDBRANCH  14  16
BRANCH  10  23
HETATM   23  O2  LEV     1     -31.121  -2.630  -6.263  1.00  0.00    -0.395 OA
HETATM   24  H6  LEV     1     -30.838  -1.679  -6.279  1.00  0.00     0.210 HD
ENDBRANCH  10  23
BRANCH   9  25
HETATM   25  C18 LEV     1     -29.537  -3.429  -3.896  1.00  0.00     0.262 C 
BRANCH  25  26
HETATM   26  O3  LEV     1     -30.754  -3.315  -3.209  1.00  0.00    -0.371 OA
HETATM   27  H12 LEV     1     -30.982  -2.348  -3.199  1.00  0.00     0.212 HD
ENDBRANCH  25  26
BRANCH  25  28
HETATM   28  O4  LEV     1     -29.080  -2.145  -4.244  1.00  0.00    -0.371 OA
HETATM   29  H20 LEV     1     -29.420  -1.522  -3.550  1.00  0.00     0.212 HD
ENDBRANCH  25  28
ENDBRANCH   9  25
TORSDOF 5
ENDMDL
