MODEL 1
REMARK VINA RESULT:    -7.448      0.000      0.000
REMARK INTER + INTRA:         -14.252
REMARK INTER:                 -12.456
REMARK INTRA:                  -1.796
REMARK UNBOUND:                -1.796
REMARK  16 active torsions:
REMARK  status: ('A' for Active; 'I' for Inactive)
REMARK    1  A    between atoms: C3_3  and  C20_33 
REMARK    2  A    between atoms: C5_7  and  N2_10 
REMARK    3  A    between atoms: C6_8  and  O1_9 
REMARK    4  A    between atoms: N2_10  and  C7_11 
REMARK    5  A    between atoms: C7_11  and  O2_12 
REMARK    6  A    between atoms: C7_11  and  C8_13 
REMARK    7  A    between atoms: C8_13  and  C9_14 
REMARK    8  A    between atoms: C8_13  and  N3_20 
REMARK    9  A    between atoms: N3_20  and  C15_21 
REMARK   10  A    between atoms: C15_21  and  O3_22 
REMARK   11  A    between atoms: C15_21  and  N4_23 
REMARK   12  A    between atoms: C18_27  and  O4_28 
REMARK   13  A    between atoms: S2_29  and  O5_30 
REMARK   14  A    between atoms: S2_29  and  O6_31 
REMARK   15  A    between atoms: C20_33  and  O7_34 
REMARK   16  A    between atoms: C20_33  and  O8_35 
ROOT
HETATM    1  C8  MEZ     1      30.957 -56.225 -11.575  1.00  0.00     0.288 C 
ENDROOT
BRANCH   1   2
HETATM    2  C7  MEZ     1      32.041 -56.398 -10.453  1.00  0.00     0.388 C 
BRANCH   2   3
HETATM    3  N2  MEZ     1      31.449 -56.808  -9.164  1.00  0.00     0.126 N 
HETATM    4  H7  MEZ     1      31.094 -55.973  -8.645  1.00  0.00     0.320 HD
BRANCH   3   5
HETATM    5  C5  MEZ     1      32.320 -57.662  -8.330  1.00  0.00     0.325 A 
HETATM    6  C4  MEZ     1      32.103 -57.599  -6.811  1.00  0.00     0.326 A 
HETATM    7  N1  MEZ     1      31.534 -58.950  -6.746  1.00  0.00     0.146 N 
HETATM    8  S1  MEZ     1      30.954 -56.342  -6.151  1.00  0.00    -0.119 SA
HETATM    9  C3  MEZ     1      30.117 -58.863  -6.319  1.00  0.00     0.299 C 
HETATM   10  C6  MEZ     1      31.792 -59.088  -8.200  1.00  0.00     0.395 A 
HETATM   11  C2  MEZ     1      29.978 -57.647  -5.363  1.00  0.00     0.039 C 
HETATM   12  C1  MEZ     1      30.562 -57.903  -3.958  1.00  0.00     0.029 C 
HETATM   13  C21 MEZ     1      28.528 -57.145  -5.242  1.00  0.00     0.029 C 
BRANCH   9  14
HETATM   14  C20 MEZ     1      29.698 -60.226  -5.708  1.00  0.00     0.289 C 
BRANCH  14  15
HETATM   15  O7  MEZ     1      30.324 -61.273  -6.406  1.00  0.00    -0.369 OA
HETATM   16  H18 MEZ     1      30.994 -61.664  -5.788  1.00  0.00     0.212 HD
ENDBRANCH  14  15
BRANCH  14  17
HETATM   17  O8  MEZ     1      28.305 -60.399  -5.746  1.00  0.00    -0.369 OA
HETATM   18  H22 MEZ     1      27.938 -59.987  -4.920  1.00  0.00     0.212 HD
ENDBRANCH  14  17
ENDBRANCH   9  14
BRANCH  10  19
HETATM   19  O1  MEZ     1      30.652 -59.337  -8.985  1.00  0.00    -0.366 OA
HETATM   20  H2  MEZ     1      30.133 -58.491  -8.998  1.00  0.00     0.212 HD
ENDBRANCH  10  19
ENDBRANCH   3   5
ENDBRANCH   2   3
BRANCH   2  21
HETATM   21  O2  MEZ     1      33.067 -57.288 -10.832  1.00  0.00    -0.366 OA
HETATM   22  H4  MEZ     1      32.649 -58.146 -11.101  1.00  0.00     0.212 HD
ENDBRANCH   2  21
ENDBRANCH   1   2
BRANCH   1  23
HETATM   23  C9  MEZ     1      29.497 -56.013 -11.061  1.00  0.00     0.023 C 
HETATM   24  C10 MEZ     1      28.754 -54.829 -11.716  1.00  0.00     0.007 C 
HETATM   25  C11 MEZ     1      27.459 -54.489 -10.949  1.00  0.00     0.000 C 
HETATM   26  C12 MEZ     1      26.794 -55.719 -10.297  1.00  0.00     0.000 C 
HETATM   27  C13 MEZ     1      27.111 -57.013 -11.057  1.00  0.00     0.000 C 
HETATM   28  C14 MEZ     1      28.627 -57.301 -11.095  1.00  0.00     0.007 C 
ENDBRANCH   1  23
BRANCH   1  29
HETATM   29  N3  MEZ     1      31.290 -55.094 -12.475  1.00  0.00     0.152 N 
HETATM   30  H14 MEZ     1      32.068 -54.494 -12.113  1.00  0.00     0.322 HD
BRANCH  29  31
HETATM   31  C15 MEZ     1      31.616 -55.522 -13.846  1.00  0.00     0.600 C 
BRANCH  31  32
HETATM   32  O3  MEZ     1      32.135 -56.831 -13.814  1.00  0.00    -0.345 OA
HETATM   33  H12 MEZ     1      31.373 -57.454 -13.930  1.00  0.00     0.214 HD
ENDBRANCH  31  32
BRANCH  31  34
HETATM   34  N4  MEZ     1      32.638 -54.615 -14.407  1.00  0.00     0.198 N 
HETATM   35  C16 MEZ     1      33.619 -54.179 -13.420  1.00  0.00     0.304 C 
HETATM   36  C17 MEZ     1      34.130 -52.849 -13.931  1.00  0.00     0.168 C 
HETATM   37  N5  MEZ     1      33.164 -52.360 -14.906  1.00  0.00    -0.280 N 
HETATM   38  C18 MEZ     1      32.109 -53.366 -14.977  1.00  0.00     0.480 C 
HETATM   39  S2  MEZ     1      33.542 -51.035 -15.283  1.00  0.00     0.045 S 
HETATM   40  C19 MEZ     1      34.018 -51.839 -17.426  1.00  0.00     0.150 C 
BRANCH  38  41
HETATM   41  O4  MEZ     1      30.995 -52.890 -14.260  1.00  0.00    -0.352 OA
HETATM   42  H14 MEZ     1      31.342 -52.465 -13.433  1.00  0.00     0.214 HD
ENDBRANCH  38  41
BRANCH  39  43
HETATM   43  O5  MEZ     1      31.337 -50.272 -16.470  1.00  0.00    -0.312 OA
HETATM   44  H15 MEZ     1      31.553 -50.108 -17.422  1.00  0.00     0.230 HD
ENDBRANCH  39  43
BRANCH  39  45
HETATM   45  O6  MEZ     1      32.439 -49.885 -14.513  1.00  0.00    -0.312 OA
HETATM   46  H16 MEZ     1      32.100 -50.052 -13.598  1.00  0.00     0.230 HD
ENDBRANCH  39  45
ENDBRANCH  31  34
ENDBRANCH  29  31
ENDBRANCH   1  29
TORSDOF 16
ENDMDL
