MODEL 1
REMARK VINA RESULT:    -6.221      0.000      0.000
REMARK INTER + INTRA:          -8.524
REMARK INTER:                  -7.858
REMARK INTRA:                  -0.666
REMARK UNBOUND:                -0.666
REMARK  6 active torsions:
REMARK  status: ('A' for Active; 'I' for Inactive)
REMARK    1  A    between atoms: C2_2  and  N1_3 
REMARK    2  A    between atoms: C4_5  and  C16_21 
REMARK    3  A    between atoms: C5_6  and  O1_7 
REMARK    4  A    between atoms: C9_11  and  N2_14 
REMARK    5  A    between atoms: C16_21  and  O2_22 
REMARK    6  A    between atoms: C16_21  and  O3_23 
ROOT
HETATM    1  N1  NOR     1      29.287 -56.521  -6.076  1.00  0.00     0.093 N 
HETATM    2  C3  NOR     1      29.985 -57.205  -4.953  1.00  0.00     0.284 C 
HETATM    3  C4  NOR     1      30.063 -58.755  -5.076  1.00  0.00     0.098 C 
HETATM    4  C5  NOR     1      30.544 -59.245  -6.482  1.00  0.00     0.135 C 
HETATM    5  C6  NOR     1      30.649 -58.081  -7.486  1.00  0.00     0.051 C 
HETATM    6  C7  NOR     1      30.956 -58.561  -8.935  1.00  0.00     0.049 C 
HETATM    7  C8  NOR     1      29.784 -58.371  -9.916  1.00  0.00     0.204 C 
HETATM    8  C9  NOR     1      29.180 -56.933  -9.898  1.00  0.00     0.258 C 
HETATM    9  C10 NOR     1      29.373 -56.202  -8.539  1.00  0.00     0.075 C 
HETATM   10  C11 NOR     1      29.369 -57.218  -7.384  1.00  0.00     0.231 C 
HETATM   11  F1  NOR     1      30.175 -58.733 -11.195  1.00  0.00    -0.247 F 
ENDROOT
BRANCH   8  12
HETATM   12  N2  NOR     1      29.577 -56.127 -11.087  1.00  0.00     0.099 N 
HETATM   13  C12 NOR     1      28.416 -55.738 -11.911  1.00  0.00     0.302 C 
HETATM   14  C13 NOR     1      28.897 -55.113 -13.226  1.00  0.00     0.299 C 
HETATM   15  N3  NOR     1      29.767 -53.957 -12.976  1.00  0.00     0.086 N 
HETATM   16  C14 NOR     1      30.904 -54.333 -12.125  1.00  0.00     0.299 C 
HETATM   17  H13 NOR     1      29.211 -53.215 -12.488  1.00  0.00     0.315 HD
HETATM   18  C15 NOR     1      30.425 -54.950 -10.805  1.00  0.00     0.302 C 
ENDBRANCH   8  12
BRANCH   1  19
HETATM   19  C2  NOR     1      27.908 -56.115  -5.719  1.00  0.00     0.268 C 
HETATM   20  C1  NOR     1      27.834 -55.805  -4.229  1.00  0.00     0.037 C 
ENDBRANCH   1  19
BRANCH   4  21
HETATM   21  O1  NOR     1      31.800 -59.865  -6.370  1.00  0.00    -0.395 OA
HETATM   22  H4  NOR     1      32.354 -59.528  -7.123  1.00  0.00     0.210 HD
ENDBRANCH   4  21
BRANCH   3  23
HETATM   23  C16 NOR     1      28.760 -59.456  -4.611  1.00  0.00     0.262 C 
BRANCH  23  24
HETATM   24  O2  NOR     1      29.009 -60.203  -3.447  1.00  0.00    -0.371 OA
HETATM   25  H12 NOR     1      28.150 -60.635  -3.193  1.00  0.00     0.212 HD
ENDBRANCH  23  24
BRANCH  23  26
HETATM   26  O3  NOR     1      28.278 -60.315  -5.608  1.00  0.00    -0.371 OA
HETATM   27  H18 NOR     1      27.365 -60.586  -5.327  1.00  0.00     0.212 HD
ENDBRANCH  23  26
ENDBRANCH   3  23
TORSDOF 6
ENDMDL
