MODEL 1
REMARK VINA RESULT:    -6.593      0.000      0.000
REMARK INTER + INTRA:          -9.837
REMARK INTER:                  -9.291
REMARK INTRA:                  -0.546
REMARK UNBOUND:                -0.546
REMARK  9 active torsions:
REMARK  status: ('A' for Active; 'I' for Inactive)
REMARK    1  A    between atoms: C3_3  and  C15_20 
REMARK    2  A    between atoms: C5_7  and  N2_10 
REMARK    3  A    between atoms: C6_8  and  O1_9 
REMARK    4  A    between atoms: N2_10  and  C7_11 
REMARK    5  A    between atoms: C7_11  and  O2_12 
REMARK    6  A    between atoms: C7_11  and  C8_13 
REMARK    7  A    between atoms: C8_13  and  C9_14 
REMARK    8  A    between atoms: C15_20  and  O3_21 
REMARK    9  A    between atoms: C15_20  and  O4_22 
ROOT
HETATM    1  C1  PEN     1      -6.022  -0.313   8.154  1.00  0.00     0.029 C 
HETATM    2  C2  PEN     1      -5.646  -1.341   7.062  1.00  0.00     0.039 C 
HETATM    3  C3  PEN     1      -6.231  -1.071   5.623  1.00  0.00     0.299 C 
HETATM    4  N1  PEN     1      -6.916  -2.266   5.083  1.00  0.00     0.146 N 
HETATM    5  C4  PEN     1      -7.078  -3.334   6.071  1.00  0.00     0.326 A 
HETATM    6  S1  PEN     1      -6.247  -2.954   7.643  1.00  0.00    -0.119 SA
HETATM    7  C5  PEN     1      -6.380  -4.373   5.187  1.00  0.00     0.325 A 
HETATM    8  C6  PEN     1      -6.152  -3.200   4.227  1.00  0.00     0.395 A 
HETATM    9  C16 PEN     1      -4.105  -1.398   7.005  1.00  0.00     0.029 C 
ENDROOT
BRANCH   7  10
HETATM   10  N2  PEN     1      -5.172  -4.988   5.779  1.00  0.00     0.124 N 
HETATM   11  H7  PEN     1      -4.354  -4.343   5.717  1.00  0.00     0.320 HD
BRANCH  10  12
HETATM   12  C7  PEN     1      -4.845  -6.270   5.128  1.00  0.00     0.354 C 
BRANCH  12  13
HETATM   13  O2  PEN     1      -4.692  -7.270   6.104  1.00  0.00    -0.368 OA
HETATM   14  H4  PEN     1      -4.215  -6.853   6.869  1.00  0.00     0.212 HD
ENDBRANCH  12  13
BRANCH  12  15
HETATM   15  C8  PEN     1      -5.992  -6.670   4.183  1.00  0.00     0.068 C 
BRANCH  15  16
HETATM   16  C9  PEN     1      -5.525  -7.523   2.981  1.00  0.00    -0.010 C 
HETATM   17  C10 PEN     1      -6.429  -8.761   2.820  1.00  0.00     0.005 C 
HETATM   18  C11 PEN     1      -5.916  -9.704   1.712  1.00  0.00     0.000 C 
HETATM   19  C12 PEN     1      -5.164  -8.974   0.582  1.00  0.00     0.000 C 
HETATM   20  C13 PEN     1      -5.681  -7.545   0.394  1.00  0.00     0.000 C 
HETATM   21  C14 PEN     1      -5.485  -6.696   1.666  1.00  0.00     0.005 C 
ENDBRANCH  15  16
ENDBRANCH  12  15
ENDBRANCH  10  12
ENDBRANCH   7  10
BRANCH   8  22
HETATM   22  O1  PEN     1      -4.801  -2.847   4.067  1.00  0.00    -0.366 OA
HETATM   23  H2  PEN     1      -4.776  -2.170   3.343  1.00  0.00     0.212 HD
ENDBRANCH   8  22
BRANCH   3  24
HETATM   24  C15 PEN     1      -7.225   0.106   5.473  1.00  0.00     0.289 C 
BRANCH  24  25
HETATM   25  O3  PEN     1      -6.619   1.188   4.815  1.00  0.00    -0.369 OA
HETATM   26  H12 PEN     1      -5.652   0.978   4.748  1.00  0.00     0.212 HD
ENDBRANCH  24  25
BRANCH  24  27
HETATM   27  O4  PEN     1      -8.383  -0.301   4.794  1.00  0.00    -0.369 OA
HETATM   28  H15 PEN     1      -8.084  -0.783   3.979  1.00  0.00     0.212 HD
ENDBRANCH  24  27
ENDBRANCH   3  24
TORSDOF 9
ENDMDL
