MODEL 1
REMARK VINA RESULT:      -3.1      0.000      0.000
REMARK  13 active torsions:
REMARK  status: ('A' for Active; 'I' for Inactive)
REMARK    1  A    between atoms: O_1  and  P_2 
REMARK    2  A    between atoms: O_1  and  C_12 
REMARK    3  A    between atoms: P_2  and  O_4 
REMARK    4  A    between atoms: P_2  and  O_10 
REMARK    5  A    between atoms: O_4  and  C_5 
REMARK    6  A    between atoms: C_5  and  C_6 
REMARK    7  A    between atoms: C_6  and  N_7 
REMARK    8  A    between atoms: C_12  and  C_13 
REMARK    9  A    between atoms: C_13  and  O_14 
REMARK   10  A    between atoms: C_13  and  C_18 
REMARK   11  A    between atoms: O_14  and  C_15 
REMARK   12  A    between atoms: C_18  and  O_19 
REMARK   13  A    between atoms: O_19  and  C_20 
ROOT
HETATM    1  O   PEA A   1       5.845 -26.047   7.849  1.00  0.00    -0.275 OA
ENDROOT
BRANCH   1   2
HETATM    2  P   PEA A   1       4.800 -26.969   8.678  1.00  0.00     0.395 P 
HETATM    3  O   PEA A   1       4.032 -27.948   7.839  1.00  0.00    -0.631 OA
BRANCH   2   4
HETATM    4  O   PEA A   1       5.681 -27.636   9.860  1.00  0.00    -0.276 OA
BRANCH   4   5
HETATM    5  C   PEA A   1       7.091 -27.720   9.735  1.00  0.00     0.188 C 
BRANCH   5   6
HETATM    6  C   PEA A   1       7.434 -28.929   8.879  1.00  0.00     0.274 C 
BRANCH   6   7
HETATM    7  N   PEA A   1       7.875 -28.513   7.555  1.00  0.00     0.097 N 
HETATM    8  H   PEA A   1       8.394 -27.639   7.625  1.00  0.00     0.314 HD
HETATM    9  H   PEA A   1       8.525 -29.203   7.182  1.00  0.00     0.314 HD
ENDBRANCH   6   7
ENDBRANCH   5   6
ENDBRANCH   4   5
ENDBRANCH   2   4
BRANCH   2  10
HETATM   10  O   PEA A   1       3.875 -25.879   9.437  1.00  0.00    -0.307 OA
HETATM   11  H   PEA A   1       3.011 -26.165   9.802  1.00  0.00     0.222 HD
ENDBRANCH   2  10
ENDBRANCH   1   2
BRANCH   1  12
HETATM   12  C   PEA A   1       5.603 -25.827   6.470  1.00  0.00     0.186 C 
BRANCH  12  13
HETATM   13  C   PEA A   1       6.851 -25.254   5.810  1.00  0.00     0.184 C 
BRANCH  13  14
HETATM   14  O   PEA A   1       7.645 -24.612   6.810  1.00  0.00    -0.299 OA
BRANCH  14  15
HETATM   15  C   PEA A   1       8.963 -24.965   6.831  1.00  0.00     0.273 C 
HETATM   16  O   PEA A   1       9.411 -26.079   7.069  1.00  0.00    -0.264 OA
HETATM   17  C   PEA A   1       9.808 -23.770   6.514  1.00  0.00     0.106 C 
ENDBRANCH  14  15
ENDBRANCH  13  14
BRANCH  13  18
HETATM   18  C   PEA A   1       6.497 -24.217   4.753  1.00  0.00     0.184 C 
BRANCH  18  19
HETATM   19  O   PEA A   1       5.175 -23.747   4.991  1.00  0.00    -0.299 OA
BRANCH  19  20
HETATM   20  C   PEA A   1       4.875 -22.522   4.463  1.00  0.00     0.273 C 
HETATM   21  O   PEA A   1       4.271 -21.621   5.028  1.00  0.00    -0.264 OA
HETATM   22  C   PEA A   1       5.402 -22.432   3.062  1.00  0.00     0.106 C 
ENDBRANCH  19  20
ENDBRANCH  18  19
ENDBRANCH  13  18
ENDBRANCH  12  13
ENDBRANCH   1  12
TORSDOF 13
ENDMDL
