MODEL 1
REMARK VINA RESULT:      -3.6      0.000      0.000
REMARK  13 active torsions:
REMARK  status: ('A' for Active; 'I' for Inactive)
REMARK    1  A    between atoms: O_1  and  P_2 
REMARK    2  A    between atoms: O_1  and  C_12 
REMARK    3  A    between atoms: P_2  and  O_4 
REMARK    4  A    between atoms: P_2  and  O_10 
REMARK    5  A    between atoms: O_4  and  C_5 
REMARK    6  A    between atoms: C_5  and  C_6 
REMARK    7  A    between atoms: C_6  and  N_7 
REMARK    8  A    between atoms: C_12  and  C_13 
REMARK    9  A    between atoms: C_13  and  O_14 
REMARK   10  A    between atoms: C_13  and  C_18 
REMARK   11  A    between atoms: O_14  and  C_15 
REMARK   12  A    between atoms: C_18  and  O_19 
REMARK   13  A    between atoms: O_19  and  C_20 
ROOT
HETATM    1  O   PEA A   1     -11.708  16.513  -1.220  1.00  0.00    -0.275 OA
ENDROOT
BRANCH   1   2
HETATM    2  P   PEA A   1     -10.250  17.211  -1.111  1.00  0.00     0.395 P 
HETATM    3  O   PEA A   1     -10.280  18.709  -1.013  1.00  0.00    -0.631 OA
BRANCH   2   4
HETATM    4  O   PEA A   1      -9.524  16.466   0.128  1.00  0.00    -0.276 OA
BRANCH   4   5
HETATM    5  C   PEA A   1     -10.230  15.499   0.888  1.00  0.00     0.188 C 
BRANCH   5   6
HETATM    6  C   PEA A   1      -9.709  14.118   0.525  1.00  0.00     0.274 C 
BRANCH   6   7
HETATM    7  N   PEA A   1      -9.655  13.953  -0.921  1.00  0.00     0.097 N 
HETATM    8  H   PEA A   1      -9.612  12.961  -1.152  1.00  0.00     0.314 HD
HETATM    9  H   PEA A   1     -10.517  14.305  -1.334  1.00  0.00     0.314 HD
ENDBRANCH   6   7
ENDBRANCH   5   6
ENDBRANCH   4   5
ENDBRANCH   2   4
BRANCH   2  10
HETATM   10  O   PEA A   1      -9.479  16.650  -2.420  1.00  0.00    -0.307 OA
HETATM   11  H   PEA A   1      -9.957  16.048  -3.027  1.00  0.00     0.222 HD
ENDBRANCH   2  10
ENDBRANCH   1   2
BRANCH   1  12
HETATM   12  C   PEA A   1     -12.185  16.144  -2.504  1.00  0.00     0.186 C 
BRANCH  12  13
HETATM   13  C   PEA A   1     -13.046  14.892  -2.396  1.00  0.00     0.184 C 
BRANCH  13  14
HETATM   14  O   PEA A   1     -12.775  14.255  -1.146  1.00  0.00    -0.299 OA
BRANCH  14  15
HETATM   15  C   PEA A   1     -13.870  13.825  -0.455  1.00  0.00     0.273 C 
HETATM   16  O   PEA A   1     -14.906  13.389  -0.939  1.00  0.00    -0.264 OA
HETATM   17  C   PEA A   1     -13.622  13.963   1.016  1.00  0.00     0.106 C 
ENDBRANCH  14  15
ENDBRANCH  13  14
BRANCH  13  18
HETATM   18  C   PEA A   1     -12.731  13.901  -3.509  1.00  0.00     0.184 C 
BRANCH  18  19
HETATM   19  O   PEA A   1     -11.359  13.532  -3.423  1.00  0.00    -0.299 OA
BRANCH  19  20
HETATM   20  C   PEA A   1     -11.073  12.231  -3.732  1.00  0.00     0.273 C 
HETATM   21  O   PEA A   1      -9.997  11.804  -4.127  1.00  0.00    -0.264 OA
HETATM   22  C   PEA A   1     -12.287  11.380  -3.515  1.00  0.00     0.106 C 
ENDBRANCH  19  20
ENDBRANCH  18  19
ENDBRANCH  13  18
ENDBRANCH  12  13
ENDBRANCH   1  12
TORSDOF 13
ENDMDL
