MODEL 1
REMARK VINA RESULT:      -3.1      0.000      0.000
REMARK  13 active torsions:
REMARK  status: ('A' for Active; 'I' for Inactive)
REMARK    1  A    between atoms: O_1  and  P_2 
REMARK    2  A    between atoms: O_1  and  C_12 
REMARK    3  A    between atoms: P_2  and  O_4 
REMARK    4  A    between atoms: P_2  and  O_10 
REMARK    5  A    between atoms: O_4  and  C_5 
REMARK    6  A    between atoms: C_5  and  C_6 
REMARK    7  A    between atoms: C_6  and  N_7 
REMARK    8  A    between atoms: C_12  and  C_13 
REMARK    9  A    between atoms: C_13  and  O_14 
REMARK   10  A    between atoms: C_13  and  C_18 
REMARK   11  A    between atoms: O_14  and  C_15 
REMARK   12  A    between atoms: C_18  and  O_19 
REMARK   13  A    between atoms: O_19  and  C_20 
ROOT
HETATM    1  O   PEA A   1       2.807  -1.755  -1.188  1.00  0.00    -0.275 OA
ENDROOT
BRANCH   1   2
HETATM    2  P   PEA A   1       2.660  -2.794  -2.424  1.00  0.00     0.395 P 
HETATM    3  O   PEA A   1       3.653  -2.590  -3.531  1.00  0.00    -0.631 OA
BRANCH   2   4
HETATM    4  O   PEA A   1       2.699  -4.261  -1.741  1.00  0.00    -0.276 OA
BRANCH   4   5
HETATM    5  C   PEA A   1       3.565  -4.512  -0.646  1.00  0.00     0.188 C 
BRANCH   5   6
HETATM    6  C   PEA A   1       2.993  -5.654   0.177  1.00  0.00     0.274 C 
BRANCH   6   7
HETATM    7  N   PEA A   1       2.355  -5.149   1.384  1.00  0.00     0.097 N 
HETATM    8  H   PEA A   1       1.344  -5.253   1.308  1.00  0.00     0.314 HD
HETATM    9  H   PEA A   1       2.642  -5.715   2.181  1.00  0.00     0.314 HD
ENDBRANCH   6   7
ENDBRANCH   5   6
ENDBRANCH   4   5
ENDBRANCH   2   4
BRANCH   2  10
HETATM   10  O   PEA A   1       1.117  -2.607  -2.876  1.00  0.00    -0.307 OA
HETATM   11  H   PEA A   1       0.519  -2.077  -2.308  1.00  0.00     0.222 HD
ENDBRANCH   2  10
ENDBRANCH   1   2
BRANCH   1  12
HETATM   12  C   PEA A   1       1.641  -1.101  -0.716  1.00  0.00     0.186 C 
BRANCH  12  13
HETATM   13  C   PEA A   1       1.474  -1.357   0.777  1.00  0.00     0.184 C 
BRANCH  13  14
HETATM   14  O   PEA A   1       2.635  -2.034   1.260  1.00  0.00    -0.299 OA
BRANCH  14  15
HETATM   15  C   PEA A   1       2.871  -1.917   2.599  1.00  0.00     0.273 C 
HETATM   16  O   PEA A   1       2.806  -2.816   3.427  1.00  0.00    -0.264 OA
HETATM   17  C   PEA A   1       3.229  -0.499   2.924  1.00  0.00     0.106 C 
ENDBRANCH  14  15
ENDBRANCH  13  14
BRANCH  13  18
HETATM   18  C   PEA A   1       0.263  -2.237   1.060  1.00  0.00     0.184 C 
BRANCH  18  19
HETATM   19  O   PEA A   1       0.146  -3.207   0.026  1.00  0.00    -0.299 OA
BRANCH  19  20
HETATM   20  C   PEA A   1      -0.804  -4.171   0.220  1.00  0.00     0.273 C 
HETATM   21  O   PEA A   1      -0.594  -5.354   0.452  1.00  0.00    -0.264 OA
HETATM   22  C   PEA A   1      -2.171  -3.567   0.107  1.00  0.00     0.106 C 
ENDBRANCH  19  20
ENDBRANCH  18  19
ENDBRANCH  13  18
ENDBRANCH  12  13
ENDBRANCH   1  12
TORSDOF 13
ENDMDL
