MODEL 1
REMARK VINA RESULT:      -3.2      0.000      0.000
REMARK  13 active torsions:
REMARK  status: ('A' for Active; 'I' for Inactive)
REMARK    1  A    between atoms: O_1  and  P_2 
REMARK    2  A    between atoms: O_1  and  C_12 
REMARK    3  A    between atoms: P_2  and  O_4 
REMARK    4  A    between atoms: P_2  and  O_10 
REMARK    5  A    between atoms: O_4  and  C_5 
REMARK    6  A    between atoms: C_5  and  C_6 
REMARK    7  A    between atoms: C_6  and  N_7 
REMARK    8  A    between atoms: C_12  and  C_13 
REMARK    9  A    between atoms: C_13  and  O_14 
REMARK   10  A    between atoms: C_13  and  C_18 
REMARK   11  A    between atoms: O_14  and  C_15 
REMARK   12  A    between atoms: C_18  and  O_19 
REMARK   13  A    between atoms: O_19  and  C_20 
ROOT
HETATM    1  O   PEA A   1       4.712 -19.996  15.524  1.00  0.00    -0.275 OA
ENDROOT
BRANCH   1   2
HETATM    2  P   PEA A   1       5.790 -19.545  14.400  1.00  0.00     0.395 P 
HETATM    3  O   PEA A   1       5.583 -18.161  13.857  1.00  0.00    -0.631 OA
BRANCH   2   4
HETATM    4  O   PEA A   1       7.234 -19.794  15.086  1.00  0.00    -0.276 OA
BRANCH   4   5
HETATM    5  C   PEA A   1       8.318 -20.271  14.306  1.00  0.00     0.188 C 
BRANCH   5   6
HETATM    6  C   PEA A   1       9.229 -19.102  13.969  1.00  0.00     0.274 C 
BRANCH   6   7
HETATM    7  N   PEA A   1       9.387 -18.973  12.528  1.00  0.00     0.097 N 
HETATM    8  H   PEA A   1       9.180 -18.017  12.244  1.00  0.00     0.314 HD
HETATM    9  H   PEA A   1      10.360 -19.142  12.278  1.00  0.00     0.314 HD
ENDBRANCH   6   7
ENDBRANCH   5   6
ENDBRANCH   4   5
ENDBRANCH   2   4
BRANCH   2  10
HETATM   10  O   PEA A   1       5.669 -20.716  13.289  1.00  0.00    -0.307 OA
HETATM   11  H   PEA A   1       5.009 -21.429  13.424  1.00  0.00     0.222 HD
ENDBRANCH   2  10
ENDBRANCH   1   2
BRANCH   1  12
HETATM   12  C   PEA A   1       3.524 -19.234  15.662  1.00  0.00     0.186 C 
BRANCH  12  13
HETATM   13  C   PEA A   1       2.465 -19.747  14.693  1.00  0.00     0.184 C 
BRANCH  13  14
HETATM   14  O   PEA A   1       1.218 -19.123  15.006  1.00  0.00    -0.299 OA
BRANCH  14  15
HETATM   15  C   PEA A   1       0.241 -19.258  14.062  1.00  0.00     0.273 C 
HETATM   16  O   PEA A   1       0.388 -19.172  12.850  1.00  0.00    -0.264 OA
HETATM   17  C   PEA A   1      -1.071 -19.532  14.732  1.00  0.00     0.106 C 
ENDBRANCH  14  15
ENDBRANCH  13  14
BRANCH  13  18
HETATM   18  C   PEA A   1       2.282 -21.254  14.814  1.00  0.00     0.184 C 
BRANCH  18  19
HETATM   19  O   PEA A   1       2.873 -21.884  13.683  1.00  0.00    -0.299 OA
BRANCH  19  20
HETATM   20  C   PEA A   1       2.045 -22.689  12.951  1.00  0.00     0.273 C 
HETATM   21  O   PEA A   1       2.315 -23.217  11.881  1.00  0.00    -0.264 OA
HETATM   22  C   PEA A   1       0.732 -22.841  13.656  1.00  0.00     0.106 C 
ENDBRANCH  19  20
ENDBRANCH  18  19
ENDBRANCH  13  18
ENDBRANCH  12  13
ENDBRANCH   1  12
TORSDOF 13
ENDMDL
