@<TRIPOS>MOLECULE
*****
 37 40 0 0 0
SMALL
GASTEIGER

@<TRIPOS>ATOM
      1  C9       -53.6960   -7.6515   -9.5186 C.ar    1  VIA1        0.0711
      2  C10      -54.0012   -6.9720  -10.7177 C.ar    1  VIA1        0.1415
      3  C11      -53.0163   -6.2355  -11.3787 C.ar    1  VIA1        0.0384
      4  C12      -51.7166   -6.1836  -10.8883 C.ar    1  VIA1        0.0230
      5  C13      -51.4043   -6.8336   -9.6995 C.ar    1  VIA1        0.1225
      6  C14      -52.3939   -7.5390   -9.0213 C.ar    1  VIA1        0.0260
      7  C7       -54.6059   -8.4362   -8.7790 C.ar    1  VIA1        0.1685
      8  N3       -54.2973   -8.8131   -7.5061 N.ar    1  VIA1       -0.2235
      9  C6       -55.2861   -9.5009   -6.8984 C.ar    1  VIA1        0.1200
     10  C4       -55.1868  -10.4270   -5.8130 C.ar    1  VIA1        0.0974
     11  C5       -56.2040  -10.2433   -7.6946 C.ar    1  VIA1        0.1543
     12  N1       -56.0366  -11.5204   -5.8533 N.ar    1  VIA1       -0.1719
     13  N2       -56.6517  -11.3714   -7.0562 N.ar    1  VIA1       -0.2429
     14  C22      -57.5984  -12.3531   -7.5692 C.3     1  VIA1        0.1539
     15  C8       -56.4274   -9.7098   -9.0567 C.ar    1  VIA1        0.2994
     16  N4       -55.7548   -8.8798   -9.3865 N.ar    1  VIA1       -0.1873
     17  O1       -57.1862  -10.1623   -9.8896 O.2     1  VIA1       -0.2634
     18  C3       -54.5260   -9.9885   -4.5359 C.3     1  VIA1        0.0441
     19  C2       -55.2349   -8.7119   -4.0407 C.3     1  VIA1       -0.0274
     20  C1       -54.6068   -8.1633   -2.7507 C.3     1  VIA1       -0.0612
     21  O4       -55.2775   -6.9057  -11.2355 O.3     1  VIA1       -0.4754
     22  C20      -56.0314   -5.6788  -11.1212 C.3     1  VIA1        0.2055
     23  C21      -56.6611   -5.6016   -9.7206 C.3     1  VIA1        0.0512
     24  S1       -49.7484   -6.8683   -9.1046 S.O2    1  VIA1        0.0634
     25  O2       -49.2348   -7.9487   -9.9014 O.2     1  VIA1       -0.1528
     26  O3       -49.1468   -5.6058   -9.4310 O.2     1  VIA1       -0.1528
     27  N5       -49.3143   -7.2413   -7.5711 N.3     1  VIA1       -0.1527
     28  C15      -49.9705   -6.4552   -6.5048 C.3     1  VIA1        0.1131
     29  C16      -49.2701   -6.6610   -5.1463 C.3     1  VIA1        0.0915
     30  N6       -49.2142   -8.0943   -4.7964 N.3     1  VIA1       -0.2690
     31  C17      -48.5369   -8.8772   -5.8496 C.3     1  VIA1        0.0915
     32  C19      -48.5560   -8.2893   -3.4969 C.3     1  VIA1        0.0897
     33  C18      -49.2275   -8.6770   -7.2140 C.3     1  VIA1        0.1131
     34 H22A      -56.3019   -8.8967   -3.8925 H       1  VIA1        0.0311
     35  H13      -53.5351   -7.9992   -2.8831 H       1  VIA1        0.0233
     36  H12      -55.0706   -7.2103   -2.4857 H       1  VIA1        0.0233
     37  H11      -54.7567   -8.8615   -1.9242 H       1  VIA1        0.0233
@<TRIPOS>BOND
     1     3     4   ar
     2     3     2   ar
     3     4     5   ar
     4    25    24    2
     5    17    15    2
     6    21     2    1
     7    21    22    1
     8     2     1   ar
     9    26    24    2
    10     5    24    1
    11     5     6   ar
    12    16    15   ar
    13    16     7   ar
    14    24    27    1
    15     1     6   ar
    16     1     7    1
    17    22    23    1
    18    15    11   ar
    19     7     8   ar
    20    27    33    1
    21    27    28    1
    22    11    13   ar
    23    11     9   ar
    24    14    13    1
    25     8     9   ar
    26    33    31    1
    27    13    12   ar
    28     9    10   ar
    29    28    29    1
    30    31    30    1
    31    12    10   ar
    32    10    18    1
    33    29    30    1
    34    30    32    1
    35    18    19    1
    36    34    19    1
    37    19    20    1
    38    36    20    1
    39    20    35    1
    40    20    37    1
