MODEL 1
REMARK VINA RESULT:    -7.498      0.000      0.000
REMARK INTER + INTRA:         -18.078
REMARK INTER:                 -14.292
REMARK INTRA:                  -3.786
REMARK UNBOUND:                -3.786
REMARK  22 active torsions:
REMARK  status: ('A' for Active; 'I' for Inactive)
REMARK    1  A    between atoms: C2_2  and  N6_42 
REMARK    2  A    between atoms: C3_3  and  O13_41 
REMARK    3  A    between atoms: C4_4  and  O5_20 
REMARK    4  A    between atoms: C5_5  and  O1_8 
REMARK    5  A    between atoms: C6_6  and  N1_7 
REMARK    6  A    between atoms: O1_8  and  C7_9 
REMARK    7  A    between atoms: C8_10  and  N3_19 
REMARK    8  A    between atoms: C9_11  and  O4_18 
REMARK    9  A    between atoms: C10_12  and  O3_17 
REMARK   10  A    between atoms: C11_13  and  C12_15 
REMARK   11  A    between atoms: C12_15  and  N2_16 
REMARK   12  A    between atoms: O5_20  and  C13_21 
REMARK   13  A    between atoms: C14_22  and  O12_40 
REMARK   14  A    between atoms: C15_23  and  O8_28 
REMARK   15  A    between atoms: C16_24  and  C17_26 
REMARK   16  A    between atoms: C17_26  and  O7_27 
REMARK   17  A    between atoms: O8_28  and  C18_29 
REMARK   18  A    between atoms: C19_30  and  N5_39 
REMARK   19  A    between atoms: C20_31  and  O11_38 
REMARK   20  A    between atoms: C21_32  and  O10_37 
REMARK   21  A    between atoms: C22_33  and  C23_35 
REMARK   22  A    between atoms: C23_35  and  N4_36 
ROOT
HETATM    1  C1  NEO     1     -35.559  -7.395  38.559  1.00  0.00     0.076 C 
HETATM    2  C2  NEO     1     -35.054  -5.977  38.254  1.00  0.00     0.251 C 
HETATM    3  C3  NEO     1     -36.220  -5.071  37.801  1.00  0.00     0.182 C 
HETATM    4  C4  NEO     1     -37.329  -5.039  38.875  1.00  0.00     0.186 C 
HETATM    5  C5  NEO     1     -37.854  -6.461  39.173  1.00  0.00     0.189 C 
HETATM    6  C6  NEO     1     -36.680  -7.378  39.619  1.00  0.00     0.251 C 
ENDROOT
BRANCH   4   7
HETATM    7  O5  NEO     1     -38.405  -4.241  38.400  1.00  0.00    -0.348 OA
BRANCH   7   8
HETATM    8  C13 NEO     1     -38.660  -3.135  39.248  1.00  0.00     0.292 C 
HETATM    9  C14 NEO     1     -40.116  -3.148  39.689  1.00  0.00     0.205 C 
HETATM   10  C15 NEO     1     -40.057  -2.423  41.014  1.00  0.00     0.189 C 
HETATM   11  C16 NEO     1     -38.648  -2.790  41.504  1.00  0.00     0.180 C 
HETATM   12  O6  NEO     1     -37.867  -3.238  40.411  1.00  0.00    -0.348 OA
BRANCH   9  13
HETATM   13  O12 NEO     1     -40.995  -2.556  38.761  1.00  0.00    -0.388 OA
HETATM   14  H43 NEO     1     -41.519  -1.847  39.218  1.00  0.00     0.210 HD
ENDBRANCH   9  13
BRANCH  10  15
HETATM   15  O8  NEO     1     -40.106  -1.017  40.817  1.00  0.00    -0.348 OA
BRANCH  15  16
HETATM   16  C18 NEO     1     -41.018  -0.399  41.702  1.00  0.00     0.296 C 
HETATM   17  C19 NEO     1     -40.326   0.827  42.345  1.00  0.00     0.303 C 
HETATM   18  C20 NEO     1     -41.244   1.471  43.407  1.00  0.00     0.187 C 
HETATM   19  C21 NEO     1     -41.847   0.410  44.353  1.00  0.00     0.179 C 
HETATM   20  C22 NEO     1     -42.418  -0.770  43.529  1.00  0.00     0.183 C 
HETATM   21  O9  NEO     1     -41.406  -1.324  42.706  1.00  0.00    -0.349 OA
BRANCH  17  22
HETATM   22  N5  NEO     1     -39.027   0.475  42.934  1.00  0.00     0.090 N 
HETATM   23  H41 NEO     1     -38.782  -0.515  42.709  1.00  0.00     0.313 HD
HETATM   24  H42 NEO     1     -38.289   1.079  42.502  1.00  0.00     0.313 HD
ENDBRANCH  17  22
BRANCH  18  25
HETATM   25  O11 NEO     1     -42.289   2.166  42.775  1.00  0.00    -0.391 OA
HETATM   26  H40 NEO     1     -42.347   3.058  43.206  1.00  0.00     0.210 HD
ENDBRANCH  18  25
BRANCH  19  27
HETATM   27  O10 NEO     1     -40.871  -0.058  45.248  1.00  0.00    -0.390 OA
HETATM   28  H39 NEO     1     -41.084   0.332  46.134  1.00  0.00     0.210 HD
ENDBRANCH  19  27
BRANCH  20  29
HETATM   29  C23 NEO     1     -42.983  -1.894  44.424  1.00  0.00     0.301 C 
BRANCH  29  30
HETATM   30  N4  NEO     1     -42.766  -3.226  43.862  1.00  0.00     0.080 N 
HETATM   31  H37 NEO     1     -43.310  -3.321  42.976  1.00  0.00     0.312 HD
HETATM   32  H38 NEO     1     -41.751  -3.355  43.643  1.00  0.00     0.312 HD
ENDBRANCH  29  30
ENDBRANCH  20  29
ENDBRANCH  15  16
ENDBRANCH  10  15
BRANCH  11  33
HETATM   33  C17 NEO     1     -38.668  -3.867  42.603  1.00  0.00     0.198 C 
BRANCH  33  34
HETATM   34  O7  NEO     1     -39.683  -3.616  43.540  1.00  0.00    -0.398 OA
HETATM   35  H29 NEO     1     -39.358  -2.888  44.131  1.00  0.00     0.209 HD
ENDBRANCH  33  34
ENDBRANCH  11  33
ENDBRANCH   7   8
ENDBRANCH   4   7
BRANCH   3  36
HETATM   36  O13 NEO     1     -35.733  -3.770  37.588  1.00  0.00    -0.391 OA
HETATM   37  H44 NEO     1     -36.105  -3.196  38.308  1.00  0.00     0.210 HD
ENDBRANCH   3  36
BRANCH   5  38
HETATM   38  O1  NEO     1     -38.808  -6.338  40.217  1.00  0.00    -0.349 OA
BRANCH  38  39
HETATM   39  C7  NEO     1     -39.835  -7.324  40.167  1.00  0.00     0.296 C 
HETATM   40  C8  NEO     1     -41.219  -6.654  40.085  1.00  0.00     0.303 C 
HETATM   41  C9  NEO     1     -41.495  -5.870  41.383  1.00  0.00     0.187 C 
HETATM   42  C10 NEO     1     -41.256  -6.759  42.622  1.00  0.00     0.179 C 
HETATM   43  C11 NEO     1     -39.870  -7.446  42.523  1.00  0.00     0.183 C 
HETATM   44  O2  NEO     1     -39.768  -8.171  41.303  1.00  0.00    -0.349 OA
BRANCH  40  45
HETATM   45  N3  NEO     1     -41.282  -5.763  38.924  1.00  0.00     0.090 N 
HETATM   46  H21 NEO     1     -41.559  -4.809  39.252  1.00  0.00     0.313 HD
HETATM   47  H22 NEO     1     -40.315  -5.661  38.538  1.00  0.00     0.313 HD
ENDBRANCH  40  45
BRANCH  41  48
HETATM   48  O4  NEO     1     -42.801  -5.348  41.386  1.00  0.00    -0.391 OA
HETATM   49  H20 NEO     1     -43.009  -5.063  42.314  1.00  0.00     0.210 HD
ENDBRANCH  41  48
BRANCH  42  50
HETATM   50  O3  NEO     1     -41.319  -5.960  43.774  1.00  0.00    -0.390 OA
HETATM   51  H19 NEO     1     -41.027  -5.048  43.511  1.00  0.00     0.210 HD
ENDBRANCH  42  50
BRANCH  43  52
HETATM   52  C12 NEO     1     -39.639  -8.456  43.672  1.00  0.00     0.301 C 
BRANCH  52  53
HETATM   53  N2  NEO     1     -38.226  -8.765  43.897  1.00  0.00     0.080 N 
HETATM   54  H17 NEO     1     -37.736  -8.862  42.981  1.00  0.00     0.312 HD
HETATM   55  H18 NEO     1     -38.135  -9.665  44.423  1.00  0.00     0.312 HD
ENDBRANCH  52  53
ENDBRANCH  43  52
ENDBRANCH  38  39
ENDBRANCH   5  38
BRANCH   2  56
HETATM   56  N6  NEO     1     -34.006  -6.046  37.231  1.00  0.00     0.085 N 
HETATM   57  H45 NEO     1     -33.078  -6.183  37.694  1.00  0.00     0.313 HD
HETATM   58  H46 NEO     1     -34.176  -6.879  36.619  1.00  0.00     0.313 HD
ENDBRANCH   2  56
BRANCH   6  59
HETATM   59  N1  NEO     1     -37.149  -8.742  39.874  1.00  0.00     0.085 N 
HETATM   60  H8  NEO     1     -37.463  -9.174  38.975  1.00  0.00     0.313 HD
HETATM   61  H9  NEO     1     -36.352  -9.314  40.238  1.00  0.00     0.313 HD
ENDBRANCH   6  59
TORSDOF 22
ENDMDL
