MODEL 1
REMARK VINA RESULT:    -6.604      0.000      0.000
REMARK INTER + INTRA:          -8.942
REMARK INTER:                  -8.342
REMARK INTRA:                  -0.600
REMARK UNBOUND:                -0.600
REMARK  6 active torsions:
REMARK  status: ('A' for Active; 'I' for Inactive)
REMARK    1  A    between atoms: C2_2  and  N1_3 
REMARK    2  A    between atoms: C4_5  and  C16_21 
REMARK    3  A    between atoms: C5_6  and  O1_7 
REMARK    4  A    between atoms: C9_11  and  N2_14 
REMARK    5  A    between atoms: C16_21  and  O2_22 
REMARK    6  A    between atoms: C16_21  and  O3_23 
ROOT
HETATM    1  N1  NOR     1     -36.665  -4.592  41.610  1.00  0.00     0.093 N 
HETATM    2  C3  NOR     1     -35.350  -4.554  40.914  1.00  0.00     0.284 C 
HETATM    3  C4  NOR     1     -35.348  -5.162  39.481  1.00  0.00     0.098 C 
HETATM    4  C5  NOR     1     -36.526  -4.653  38.586  1.00  0.00     0.135 C 
HETATM    5  C6  NOR     1     -37.531  -3.807  39.393  1.00  0.00     0.051 C 
HETATM    6  C7  NOR     1     -38.800  -3.434  38.572  1.00  0.00     0.049 C 
HETATM    7  C8  NOR     1     -40.083  -4.137  39.055  1.00  0.00     0.204 C 
HETATM    8  C9  NOR     1     -40.328  -4.008  40.590  1.00  0.00     0.258 C 
HETATM    9  C10 NOR     1     -39.018  -3.817  41.407  1.00  0.00     0.075 C 
HETATM   10  C11 NOR     1     -37.851  -4.542  40.717  1.00  0.00     0.231 C 
HETATM   11  F1  NOR     1     -41.173  -3.675  38.335  1.00  0.00    -0.247 F 
ENDROOT
BRANCH   8  12
HETATM   12  N2  NOR     1     -41.404  -3.032  40.922  1.00  0.00     0.099 N 
HETATM   13  C12 NOR     1     -42.654  -3.699  41.334  1.00  0.00     0.302 C 
HETATM   14  C13 NOR     1     -43.783  -2.666  41.443  1.00  0.00     0.299 C 
HETATM   15  N3  NOR     1     -43.431  -1.594  42.383  1.00  0.00     0.086 N 
HETATM   16  C14 NOR     1     -42.167  -0.954  41.996  1.00  0.00     0.299 C 
HETATM   17  H13 NOR     1     -43.322  -2.007  43.340  1.00  0.00     0.315 HD
HETATM   18  C15 NOR     1     -41.034  -1.984  41.896  1.00  0.00     0.302 C 
ENDBRANCH   8  12
BRANCH   1  19
HETATM   19  C2  NOR     1     -36.741  -5.676  42.616  1.00  0.00     0.268 C 
HETATM   20  C1  NOR     1     -35.544  -5.587  43.556  1.00  0.00     0.037 C 
ENDBRANCH   1  19
BRANCH   4  21
HETATM   21  O1  NOR     1     -36.024  -3.877  37.528  1.00  0.00    -0.395 OA
HETATM   22  H4  NOR     1     -36.187  -2.927  37.768  1.00  0.00     0.210 HD
ENDBRANCH   4  21
BRANCH   3  23
HETATM   23  C16 NOR     1     -35.228  -6.708  39.491  1.00  0.00     0.262 C 
BRANCH  23  24
HETATM   24  O2  NOR     1     -34.431  -7.120  40.572  1.00  0.00    -0.371 OA
HETATM   25  H12 NOR     1     -34.766  -6.640  41.375  1.00  0.00     0.212 HD
ENDBRANCH  23  24
BRANCH  23  26
HETATM   26  O3  NOR     1     -34.650  -7.166  38.299  1.00  0.00    -0.371 OA
HETATM   27  H18 NOR     1     -35.398  -7.469  37.721  1.00  0.00     0.212 HD
ENDBRANCH  23  26
ENDBRANCH   3  23
TORSDOF 6
ENDMDL
