MODEL 1
REMARK VINA RESULT:    -7.559      0.000      0.000
REMARK INTER + INTRA:         -14.232
REMARK INTER:                 -12.420
REMARK INTRA:                  -1.813
REMARK UNBOUND:                -1.813
REMARK  16 active torsions:
REMARK  status: ('A' for Active; 'I' for Inactive)
REMARK    1  A    between atoms: C2_2  and  N5_32 
REMARK    2  A    between atoms: C3_3  and  O7_21 
REMARK    3  A    between atoms: C4_4  and  O6_20 
REMARK    4  A    between atoms: C5_5  and  O1_8 
REMARK    5  A    between atoms: C6_6  and  N1_7 
REMARK    6  A    between atoms: O1_8  and  C7_9 
REMARK    7  A    between atoms: C8_10  and  O5_19 
REMARK    8  A    between atoms: C9_11  and  N2_18 
REMARK    9  A    between atoms: C10_12  and  O4_17 
REMARK   10  A    between atoms: C11_13  and  C12_15 
REMARK   11  A    between atoms: C12_15  and  O3_16 
REMARK   12  A    between atoms: O7_21  and  C13_22 
REMARK   13  A    between atoms: C14_23  and  N4_31 
REMARK   14  A    between atoms: C16_25  and  O9_30 
REMARK   15  A    between atoms: C17_26  and  C18_28 
REMARK   16  A    between atoms: C18_28  and  N3_29 
ROOT
HETATM    1  C1  TOB     1     -40.124  -5.388  38.043  1.00  0.00     0.076 C 
HETATM    2  C2  TOB     1     -39.639  -6.539  38.957  1.00  0.00     0.251 C 
HETATM    3  C3  TOB     1     -40.058  -6.358  40.439  1.00  0.00     0.189 C 
HETATM    4  C4  TOB     1     -41.555  -6.009  40.592  1.00  0.00     0.180 C 
HETATM    5  C5  TOB     1     -41.971  -4.774  39.743  1.00  0.00     0.189 C 
HETATM    6  C6  TOB     1     -41.584  -4.916  38.254  1.00  0.00     0.251 C 
ENDROOT
BRANCH   5   7
HETATM    7  O1  TOB     1     -41.355  -3.595  40.244  1.00  0.00    -0.348 OA
BRANCH   7   8
HETATM    8  C7  TOB     1     -42.060  -3.017  41.333  1.00  0.00     0.291 C 
HETATM    9  C8  TOB     1     -42.493  -1.580  40.947  1.00  0.00     0.208 C 
HETATM   10  C9  TOB     1     -42.780  -0.704  42.201  1.00  0.00     0.282 C 
HETATM   11  C10 TOB     1     -43.046  -1.586  43.433  1.00  0.00     0.184 C 
HETATM   12  C11 TOB     1     -41.832  -2.536  43.648  1.00  0.00     0.179 C 
HETATM   13  O2  TOB     1     -41.193  -2.981  42.453  1.00  0.00    -0.349 OA
BRANCH   9  14
HETATM   14  O5  TOB     1     -41.533  -0.955  40.130  1.00  0.00    -0.388 OA
HETATM   15  H21 TOB     1     -40.733  -1.543  40.104  1.00  0.00     0.210 HD
ENDBRANCH   9  14
BRANCH  10  16
HETATM   16  N2  TOB     1     -43.906   0.205  41.968  1.00  0.00     0.088 N 
HETATM   17  H19 TOB     1     -44.552   0.152  42.789  1.00  0.00     0.313 HD
HETATM   18  H20 TOB     1     -43.554   1.188  41.906  1.00  0.00     0.313 HD
ENDBRANCH  10  16
BRANCH  11  19
HETATM   19  O4  TOB     1     -43.219  -0.787  44.576  1.00  0.00    -0.391 OA
HETATM   20  H18 TOB     1     -44.169  -0.873  44.850  1.00  0.00     0.210 HD
ENDBRANCH  11  19
BRANCH  12  21
HETATM   21  C12 TOB     1     -42.164  -3.729  44.557  1.00  0.00     0.198 C 
BRANCH  21  22
HETATM   22  O3  TOB     1     -43.169  -3.406  45.481  1.00  0.00    -0.398 OA
HETATM   23  H17 TOB     1     -43.913  -4.047  45.339  1.00  0.00     0.209 HD
ENDBRANCH  21  22
ENDBRANCH  12  21
ENDBRANCH   7   8
ENDBRANCH   5   7
BRANCH   4  24
HETATM   24  O6  TOB     1     -42.349  -7.124  40.282  1.00  0.00    -0.390 OA
HETATM   25  H22 TOB     1     -42.409  -7.171  39.292  1.00  0.00     0.210 HD
ENDBRANCH   4  24
BRANCH   6  26
HETATM   26  N1  TOB     1     -42.563  -5.714  37.507  1.00  0.00     0.085 N 
HETATM   27  H8  TOB     1     -43.442  -5.161  37.384  1.00  0.00     0.313 HD
HETATM   28  H9  TOB     1     -42.210  -5.968  36.563  1.00  0.00     0.313 HD
ENDBRANCH   6  26
BRANCH   3  29
HETATM   29  O7  TOB     1     -39.302  -5.317  41.048  1.00  0.00    -0.349 OA
BRANCH  29  30
HETATM   30  C13 TOB     1     -37.903  -5.571  41.056  1.00  0.00     0.293 C 
HETATM   31  C14 TOB     1     -37.473  -6.053  42.464  1.00  0.00     0.275 C 
HETATM   32  C15 TOB     1     -35.960  -5.818  42.700  1.00  0.00     0.074 C 
HETATM   33  C16 TOB     1     -35.196  -5.715  41.373  1.00  0.00     0.151 C 
HETATM   34  C17 TOB     1     -35.829  -4.598  40.487  1.00  0.00     0.181 C 
HETATM   35  O8  TOB     1     -37.213  -4.372  40.747  1.00  0.00    -0.349 OA
BRANCH  31  36
HETATM   36  N4  TOB     1     -38.265  -5.396  43.507  1.00  0.00     0.087 N 
HETATM   37  H34 TOB     1     -39.281  -5.554  43.309  1.00  0.00     0.313 HD
HETATM   38  H35 TOB     1     -38.049  -5.829  44.435  1.00  0.00     0.313 HD
ENDBRANCH  31  36
BRANCH  33  39
HETATM   39  O9  TOB     1     -33.847  -5.415  41.626  1.00  0.00    -0.393 OA
HETATM   40  H33 TOB     1     -33.317  -6.197  41.320  1.00  0.00     0.210 HD
ENDBRANCH  33  39
BRANCH  34  41
HETATM   41  C18 TOB     1     -35.619  -4.840  38.975  1.00  0.00     0.301 C 
BRANCH  41  42
HETATM   42  N3  TOB     1     -34.214  -4.735  38.580  1.00  0.00     0.080 N 
HETATM   43  H31 TOB     1     -33.633  -4.506  39.419  1.00  0.00     0.312 HD
HETATM   44  H32 TOB     1     -33.894  -5.655  38.201  1.00  0.00     0.312 HD
ENDBRANCH  41  42
ENDBRANCH  34  41
ENDBRANCH  29  30
ENDBRANCH   3  29
BRANCH   2  45
HETATM   45  N5  TOB     1     -40.001  -7.867  38.450  1.00  0.00     0.085 N 
HETATM   46  H36 TOB     1     -39.168  -8.484  38.371  1.00  0.00     0.313 HD
HETATM   47  H37 TOB     1     -40.663  -8.320  39.121  1.00  0.00     0.313 HD
ENDBRANCH   2  45
TORSDOF 16
ENDMDL
