@<TRIPOS>MOLECULE
*****
 58 61 0 0 0
SMALL
GASTEIGER

@<TRIPOS>ATOM
      1  C1       -33.2913   -6.7983  -10.8020 C.3     1  LEV1       -0.0473
      2  N1       -30.9842   -6.6362  -11.6878 N.3     1  LEV1       -0.2912
      3  O1       -31.3131   -5.0407   -9.2940 O.3     1  LEV1       -0.3718
      4  C2       -32.2341   -5.8648  -11.4276 C.3     1  LEV1        0.0314
      5  N2       -29.4685   -5.2700   -7.0850 N.3     1  LEV1       -0.2920
      6  O2       -27.2877   -8.4793  -12.6040 O.3     1  LEV1       -0.3910
      7  C3       -31.9756   -4.6376  -10.5221 C.3     1  LEV1        0.0635
      8  N3       -29.5542   -3.9293   -4.4739 N.3     1  LEV1       -0.3029
      9  O3       -28.3644   -6.5557  -15.1841 O.3     1  LEV1       -0.3668
     10  C4       -30.2575   -6.0472   -9.3656 C.3     1  LEV1        0.0927
     11  O4       -30.1829   -7.7850  -15.7536 O.3     1  LEV1       -0.3668
     12  C5       -29.8196   -6.2600  -10.8403 C.3     1  LEV1        0.0438
     13  C6       -30.6256   -6.6978  -13.1240 C.3     1  LEV1        0.0094
     14  C7       -29.4973   -7.7317  -13.3793 C.3     1  LEV1        0.0487
     15  C8       -28.2777   -7.4502  -12.4476 C.3     1  LEV1        0.0682
     16  C9       -28.7188   -7.3434  -10.9629 C.3     1  LEV1        0.0062
     17  C10      -27.5233   -6.9786  -10.0455 C.3     1  LEV1       -0.0135
     18  C11      -27.9691   -6.7654   -8.5814 C.3     1  LEV1        0.1192
     19  C12      -29.0406   -5.6368   -8.4826 C.3     1  LEV1        0.0693
     20  C13      -28.5825   -5.7006   -5.9633 C.3     1  LEV1        0.0122
     21  C14      -29.2203   -5.3687   -4.5937 C.3     1  LEV1        0.0114
     22  C15      -30.4192   -3.4917   -5.5953 C.3     1  LEV1        0.0114
     23  C16      -29.7764   -3.8140   -6.9623 C.3     1  LEV1        0.0122
     24  C17      -28.3715   -3.0626   -4.2646 C.3     1  LEV1       -0.0127
     25  C18      -29.0721   -7.7369  -14.8757 C.3     1  LEV1        0.1595
     26  F1       -28.4353   -7.9337   -8.0946 F       1  LEV1       -0.2438
     27  H01      -34.2252   -6.2582  -10.6311 H       1  LEV1        0.0245
     28  H02      -33.5012   -7.6364  -11.4704 H       1  LEV1        0.0245
     29  H03      -32.9486   -7.2013   -9.8463 H       1  LEV1        0.0245
     30  H04      -32.6429   -5.4971  -12.3736 H       1  LEV1        0.0482
     31  H05      -26.8230   -8.3660  -13.4580 H       1  LEV1        0.2098
     32  H06      -31.3324   -3.9254  -11.0464 H       1  LEV1        0.0575
     33  H07      -32.9155   -4.1387  -10.2702 H       1  LEV1        0.0575
     34  H08      -27.8720   -6.3920  -14.3730 H       1  LEV1        0.2125
     35  H09      -30.6756   -6.9828   -8.9823 H       1  LEV1        0.0628
     36  H10      -30.4400   -8.7100  -15.8000 H       1  LEV1        0.2125
     37  H11      -29.4107   -5.3123  -11.2051 H       1  LEV1        0.0492
     38  H12      -30.3075   -5.7078  -13.4641 H       1  LEV1        0.0432
     39  H13      -31.5092   -6.9910  -13.6980 H       1  LEV1        0.0432
     40  H14      -29.8916   -8.7225  -13.1362 H       1  LEV1        0.0387
     41  H15      -27.8285   -6.4919  -12.7216 H       1  LEV1        0.0601
     42  H16      -29.1294   -8.3059  -10.6436 H       1  LEV1        0.0343
     43  H17      -27.0421   -6.0673  -10.4096 H       1  LEV1        0.0297
     44  H18      -26.7736   -7.7729  -10.0766 H       1  LEV1        0.0297
     45  H19      -27.0885   -6.4956   -7.9929 H       1  LEV1        0.0668
     46  H20      -28.5864   -4.7478   -8.9305 H       1  LEV1        0.0517
     47  H21      -27.6097   -5.2087   -6.0470 H       1  LEV1        0.0439
     48  H22      -28.4302   -6.7810   -5.9889 H       1  LEV1        0.0439
     49  H23      -30.1401   -5.9519   -4.4908 H       1  LEV1        0.0439
     50  H24      -28.5422   -5.6633   -3.7880 H       1  LEV1        0.0439
     51  H25      -30.6137   -2.4181   -5.5211 H       1  LEV1        0.0439
     52  H26      -31.3777   -4.0149   -5.5303 H       1  LEV1        0.0439
     53  H27      -30.4677   -3.4917   -7.7413 H       1  LEV1        0.0439
     54  H28      -28.8560   -3.2355   -7.0787 H       1  LEV1        0.0439
     55  H29      -27.7004   -3.1015   -5.1261 H       1  LEV1        0.0391
     56  H30      -28.6933   -2.0287   -4.1125 H       1  LEV1        0.0391
     57  H31      -27.8259   -3.3909   -3.3757 H       1  LEV1        0.0391
     58  H32      -28.4151   -8.5916  -15.1003 H       1  LEV1        0.0909
@<TRIPOS>BOND
     1    36    11    1
     2    11    25    1
     3     9    25    1
     4     9    34    1
     5    58    25    1
     6    25    14    1
     7    39    13    1
     8    31     6    1
     9    38    13    1
    10    14    13    1
    11    14    40    1
    12    14    15    1
    13    13     2    1
    14    41    15    1
    15     6    15    1
    16    15    16    1
    17    30     4    1
    18     2     4    1
    19     2    12    1
    20    27     1    1
    21     4     1    1
    22     4     7    1
    23    37    12    1
    24    28     1    1
    25    16    12    1
    26    16    42    1
    27    16    17    1
    28     1    29    1
    29    32     7    1
    30    12    10    1
    31    43    17    1
    32     7    33    1
    33     7     3    1
    34    44    17    1
    35    17    18    1
    36    10     3    1
    37    10    35    1
    38    10    19    1
    39    46    19    1
    40    18    19    1
    41    18    45    1
    42    18    26    1
    43    19     5    1
    44    53    23    1
    45     5    23    1
    46     5    20    1
    47    54    23    1
    48    23    22    1
    49    48    20    1
    50    47    20    1
    51    20    21    1
    52    52    22    1
    53    22    51    1
    54    22     8    1
    55    55    24    1
    56    49    21    1
    57    21     8    1
    58    21    50    1
    59     8    24    1
    60    56    24    1
    61    24    57    1
