@<TRIPOS>MOLECULE
PHZ_h_unique.pdb
 16 16 0 0 0
SMALL
GASTEIGER

@<TRIPOS>ATOM
      1  C1        -2.2730    0.0870    0.0960 C.ar    1  PHZ1       -0.0616
      2  C2        -1.4480   -0.5760    1.0070 C.ar    1  PHZ1       -0.0600
      3  C3        -0.0620   -0.5990    0.8130 C.ar    1  PHZ1       -0.0397
      4  C4         0.5070    0.0450   -0.3010 C.ar    1  PHZ1        0.0410
      5  C5        -0.3320    0.6990   -1.2150 C.ar    1  PHZ1       -0.0397
      6  C6        -1.7150    0.7230   -1.0160 C.ar    1  PHZ1       -0.0600
      7  N1         1.9220    0.0190   -0.5360 N.pl3   1  PHZ1       -0.2830
      8  N2         2.8180   -0.3470    0.4780 N.3     1  PHZ1       -0.2565
      9  H1        -3.3440    0.1060    0.2480 H       1  PHZ1        0.0618
     10  H2        -1.8810   -1.0720    1.8660 H       1  PHZ1        0.0618
     11  H3         0.5610   -1.1220    1.5270 H       1  PHZ1        0.0636
     12  H4         0.0860    1.1930   -2.0830 H       1  PHZ1        0.0636
     13  H5        -2.3550    1.2330   -1.7240 H       1  PHZ1        0.0618
     14  H6         2.3020    0.4330   -1.4180 H       1  PHZ1        0.1660
     15  H7         3.5560   -0.9420    0.0380 H       1  PHZ1        0.1404
     16  H8         3.2860    0.5290    0.8050 H       1  PHZ1        0.1404
@<TRIPOS>BOND
     1    12     5    1
     2    13     6    1
     3    14     7    1
     4     5     6   ar
     5     5     4   ar
     6     6     1   ar
     7     7     4    1
     8     7     8    1
     9     4     3   ar
    10    15     8    1
    11     1     9    1
    12     1     2   ar
    13     8    16    1
    14     3     2   ar
    15     3    11    1
    16     2    10    1
