MODEL 1
REMARK VINA RESULT:      -5.6      0.000      0.000
REMARK  13 active torsions:
REMARK  status: ('A' for Active; 'I' for Inactive)
REMARK    1  A    between atoms: C5_1  and  C4_2 
REMARK    2  A    between atoms: C5_1  and  O3_12 
REMARK    3  A    between atoms: C4_2  and  C3_3 
REMARK    4  A    between atoms: C4_2  and  O7_8 
REMARK    5  A    between atoms: C3_3  and  O2_4 
REMARK    6  A    between atoms: O2_4  and  C2_5 
REMARK    7  A    between atoms: O7_8  and  C8_9 
REMARK    8  A    between atoms: O3_12  and  P1_13 
REMARK    9  A    between atoms: P1_13  and  O5_15 
REMARK   10  A    between atoms: P1_13  and  O6_17 
REMARK   11  A    between atoms: O6_17  and  C6_18 
REMARK   12  A    between atoms: C6_18  and  C7_19 
REMARK   13  A    between atoms: C7_19  and  N1_20 
ROOT
HETATM    1  C5  PGL A   1      58.583  77.284  31.430  1.00  0.00     0.186 C 
ENDROOT
BRANCH   1   2
HETATM    2  C4  PGL A   1      57.291  76.665  32.002  1.00  0.00     0.184 C 
BRANCH   2   3
HETATM    3  C3  PGL A   1      57.301  76.574  33.535  1.00  0.00     0.184 C 
BRANCH   3   4
HETATM    4  O2  PGL A   1      56.045  76.130  34.036  1.00  0.00    -0.299 OA
BRANCH   4   5
HETATM    5  C2  PGL A   1      55.877  75.651  35.337  1.00  0.00     0.273 C 
HETATM    6  C1  PGL A   1      55.794  74.179  35.566  1.00  0.00     0.106 C 
HETATM    7  O1  PGL A   1      55.797  76.446  36.312  1.00  0.00    -0.264 OA
ENDBRANCH   4   5
ENDBRANCH   3   4
ENDBRANCH   2   3
BRANCH   2   8
HETATM    8  O7  PGL A   1      56.108  77.312  31.515  1.00  0.00    -0.299 OA
BRANCH   8   9
HETATM    9  C8  PGL A   1      55.121  76.737  30.701  1.00  0.00     0.273 C 
HETATM   10  O8  PGL A   1      54.471  75.722  31.072  1.00  0.00    -0.264 OA
HETATM   11  C9  PGL A   1      54.793  77.377  29.396  1.00  0.00     0.106 C 
ENDBRANCH   8   9
ENDBRANCH   2   8
ENDBRANCH   1   2
BRANCH   1  12
HETATM   12  O3  PGL A   1      58.812  78.559  31.994  1.00  0.00    -0.275 OA
BRANCH  12  13
HETATM   13  P1  PGL A   1      60.461  78.737  32.410  1.00  0.00     0.395 P 
HETATM   14  O4  PGL A   1      61.037  77.430  32.907  1.00  0.00    -0.631 OA
BRANCH  13  15
HETATM   15  O5  PGL A   1      60.593  79.892  33.640  1.00  0.00    -0.307 OA
HETATM   16  H9  PGL A   1      61.355  79.584  34.192  1.00  0.00     0.222 HD
ENDBRANCH  13  15
BRANCH  13  17
HETATM   17  O6  PGL A   1      61.384  79.265  31.069  1.00  0.00    -0.276 OA
BRANCH  17  18
HETATM   18  C6  PGL A   1      62.218  80.344  31.438  1.00  0.00     0.188 C 
BRANCH  18  19
HETATM   19  C7  PGL A   1      63.617  79.871  31.861  1.00  0.00     0.274 C 
BRANCH  19  20
HETATM   20  N1  PGL A   1      63.797  80.057  33.296  1.00  0.00     0.097 N 
HETATM   21  H14 PGL A   1      64.293  80.966  33.448  1.00  0.00     0.314 HD
HETATM   22  H15 PGL A   1      64.442  79.306  33.635  1.00  0.00     0.314 HD
ENDBRANCH  19  20
ENDBRANCH  18  19
ENDBRANCH  17  18
ENDBRANCH  13  17
ENDBRANCH  12  13
ENDBRANCH   1  12
TORSDOF 13
ENDMDL
