MODEL 1
REMARK VINA RESULT:      -4.1      0.000      0.000
REMARK  13 active torsions:
REMARK  status: ('A' for Active; 'I' for Inactive)
REMARK    1  A    between atoms: C5_1  and  C4_2 
REMARK    2  A    between atoms: C5_1  and  O3_12 
REMARK    3  A    between atoms: C4_2  and  C3_3 
REMARK    4  A    between atoms: C4_2  and  O7_8 
REMARK    5  A    between atoms: C3_3  and  O2_4 
REMARK    6  A    between atoms: O2_4  and  C2_5 
REMARK    7  A    between atoms: O7_8  and  C8_9 
REMARK    8  A    between atoms: O3_12  and  P1_13 
REMARK    9  A    between atoms: P1_13  and  O5_15 
REMARK   10  A    between atoms: P1_13  and  O6_17 
REMARK   11  A    between atoms: O6_17  and  C6_18 
REMARK   12  A    between atoms: C6_18  and  C7_19 
REMARK   13  A    between atoms: C7_19  and  N1_20 
ROOT
HETATM    1  C5  PGL A   1      59.738  87.426  36.847  1.00  0.00     0.186 C 
ENDROOT
BRANCH   1   2
HETATM    2  C4  PGL A   1      60.698  88.052  35.813  1.00  0.00     0.184 C 
BRANCH   2   3
HETATM    3  C3  PGL A   1      62.142  87.549  35.961  1.00  0.00     0.184 C 
BRANCH   3   4
HETATM    4  O2  PGL A   1      62.811  87.521  34.704  1.00  0.00    -0.299 OA
BRANCH   4   5
HETATM    5  C2  PGL A   1      63.747  88.485  34.324  1.00  0.00     0.273 C 
HETATM    6  C1  PGL A   1      64.843  88.846  35.269  1.00  0.00     0.106 C 
HETATM    7  O1  PGL A   1      63.676  89.046  33.198  1.00  0.00    -0.264 OA
ENDBRANCH   4   5
ENDBRANCH   3   4
ENDBRANCH   2   3
BRANCH   2   8
HETATM    8  O7  PGL A   1      60.222  87.916  34.468  1.00  0.00    -0.299 OA
BRANCH   8   9
HETATM    9  C8  PGL A   1      59.693  88.938  33.667  1.00  0.00     0.273 C 
HETATM   10  O8  PGL A   1      60.440  89.763  33.074  1.00  0.00    -0.264 OA
HETATM   11  C9  PGL A   1      58.219  89.012  33.463  1.00  0.00     0.106 C 
ENDBRANCH   8   9
ENDBRANCH   2   8
ENDBRANCH   1   2
BRANCH   1  12
HETATM   12  O3  PGL A   1      60.024  86.054  37.020  1.00  0.00    -0.275 OA
BRANCH  12  13
HETATM   13  P1  PGL A   1      58.726  85.099  36.447  1.00  0.00     0.395 P 
HETATM   14  O4  PGL A   1      59.085  83.630  36.471  1.00  0.00    -0.631 OA
BRANCH  13  15
HETATM   15  O5  PGL A   1      58.379  85.548  34.853  1.00  0.00    -0.307 OA
HETATM   16  H9  PGL A   1      57.830  84.805  34.498  1.00  0.00     0.222 HD
ENDBRANCH  13  15
BRANCH  13  17
HETATM   17  O6  PGL A   1      57.321  85.332  37.396  1.00  0.00    -0.276 OA
BRANCH  17  18
HETATM   18  C6  PGL A   1      56.238  85.734  36.582  1.00  0.00     0.188 C 
BRANCH  18  19
HETATM   19  C7  PGL A   1      55.265  84.578  36.306  1.00  0.00     0.274 C 
BRANCH  19  20
HETATM   20  N1  PGL A   1      55.969  83.472  35.665  1.00  0.00     0.097 N 
HETATM   21  H14 PGL A   1      56.208  82.767  36.401  1.00  0.00     0.314 HD
HETATM   22  H15 PGL A   1      56.877  83.842  35.302  1.00  0.00     0.314 HD
ENDBRANCH  19  20
ENDBRANCH  18  19
ENDBRANCH  17  18
ENDBRANCH  13  17
ENDBRANCH  12  13
ENDBRANCH   1  12
TORSDOF 13
ENDMDL
