MODEL 1
REMARK VINA RESULT:      -4.1      0.000      0.000
REMARK  13 active torsions:
REMARK  status: ('A' for Active; 'I' for Inactive)
REMARK    1  A    between atoms: C5_1  and  C4_2 
REMARK    2  A    between atoms: C5_1  and  O3_12 
REMARK    3  A    between atoms: C4_2  and  C3_3 
REMARK    4  A    between atoms: C4_2  and  O7_8 
REMARK    5  A    between atoms: C3_3  and  O2_4 
REMARK    6  A    between atoms: O2_4  and  C2_5 
REMARK    7  A    between atoms: O7_8  and  C8_9 
REMARK    8  A    between atoms: O3_12  and  P1_13 
REMARK    9  A    between atoms: P1_13  and  O5_15 
REMARK   10  A    between atoms: P1_13  and  O6_17 
REMARK   11  A    between atoms: O6_17  and  C6_18 
REMARK   12  A    between atoms: C6_18  and  C7_19 
REMARK   13  A    between atoms: C7_19  and  N1_20 
ROOT
HETATM    1  C5  PGL A   1      65.143  78.958  42.250  1.00  0.00     0.186 C 
ENDROOT
BRANCH   1   2
HETATM    2  C4  PGL A   1      64.544  78.959  40.828  1.00  0.00     0.184 C 
BRANCH   2   3
HETATM    3  C3  PGL A   1      64.434  77.550  40.227  1.00  0.00     0.184 C 
BRANCH   3   4
HETATM    4  O2  PGL A   1      65.715  77.038  39.872  1.00  0.00    -0.299 OA
BRANCH   4   5
HETATM    5  C2  PGL A   1      66.592  77.718  39.024  1.00  0.00     0.273 C 
HETATM    6  C1  PGL A   1      66.123  78.128  37.669  1.00  0.00     0.106 C 
HETATM    7  O1  PGL A   1      67.767  77.987  39.392  1.00  0.00    -0.264 OA
ENDBRANCH   4   5
ENDBRANCH   3   4
ENDBRANCH   2   3
BRANCH   2   8
HETATM    8  O7  PGL A   1      63.298  79.667  40.756  1.00  0.00    -0.299 OA
BRANCH   8   9
HETATM    9  C8  PGL A   1      62.581  80.197  41.838  1.00  0.00     0.273 C 
HETATM   10  O8  PGL A   1      61.865  79.466  42.575  1.00  0.00    -0.264 OA
HETATM   11  C9  PGL A   1      62.717  81.646  42.159  1.00  0.00     0.106 C 
ENDBRANCH   8   9
ENDBRANCH   2   8
ENDBRANCH   1   2
BRANCH   1  12
HETATM   12  O3  PGL A   1      66.325  79.731  42.289  1.00  0.00    -0.275 OA
BRANCH  12  13
HETATM   13  P1  PGL A   1      67.609  78.821  42.957  1.00  0.00     0.395 P 
HETATM   14  O4  PGL A   1      68.940  79.486  42.688  1.00  0.00    -0.631 OA
BRANCH  13  15
HETATM   15  O5  PGL A   1      67.617  77.284  42.249  1.00  0.00    -0.307 OA
HETATM   16  H9  PGL A   1      66.673  76.986  42.287  1.00  0.00     0.222 HD
ENDBRANCH  13  15
BRANCH  13  17
HETATM   17  O6  PGL A   1      67.424  78.638  44.649  1.00  0.00    -0.276 OA
BRANCH  17  18
HETATM   18  C6  PGL A   1      68.685  78.633  45.285  1.00  0.00     0.188 C 
BRANCH  18  19
HETATM   19  C7  PGL A   1      69.303  77.229  45.328  1.00  0.00     0.274 C 
BRANCH  19  20
HETATM   20  N1  PGL A   1      70.298  77.086  44.271  1.00  0.00     0.097 N 
HETATM   21  H14 PGL A   1      70.474  76.064  44.124  1.00  0.00     0.314 HD
HETATM   22  H15 PGL A   1      71.194  77.494  44.621  1.00  0.00     0.314 HD
ENDBRANCH  19  20
ENDBRANCH  18  19
ENDBRANCH  17  18
ENDBRANCH  13  17
ENDBRANCH  12  13
ENDBRANCH   1  12
TORSDOF 13
ENDMDL
