MODEL 1
REMARK VINA RESULT:    -6.550      0.000      0.000
REMARK INTER + INTRA:          -8.347
REMARK INTER:                  -7.890
REMARK INTRA:                  -0.457
REMARK UNBOUND:                -0.457
REMARK  5 active torsions:
REMARK  status: ('A' for Active; 'I' for Inactive)
REMARK    1  A    between atoms: C7_9  and  C18_24 
REMARK    2  A    between atoms: C8_10  and  O2_11 
REMARK    3  A    between atoms: C12_15  and  N2_16 
REMARK    4  A    between atoms: C18_24  and  O3_25 
REMARK    5  A    between atoms: C18_24  and  O4_26 
ROOT
HETATM    1  C1  LEV     1      18.453 -12.262 -11.610  1.00  0.00     0.045 C 
HETATM    2  C2  LEV     1      18.692 -13.416 -12.585  1.00  0.00     0.243 C 
HETATM    3  C3  LEV     1      17.614 -13.413 -13.701  1.00  0.00     0.203 C 
HETATM    4  O1  LEV     1      17.769 -12.341 -14.614  1.00  0.00    -0.379 OA
HETATM    5  C4  LEV     1      19.104 -12.176 -15.087  1.00  0.00     0.191 C 
HETATM    6  C5  LEV     1      20.108 -13.254 -14.595  1.00  0.00     0.261 C 
HETATM    7  N1  LEV     1      20.076 -13.305 -13.122  1.00  0.00     0.103 N 
HETATM    8  C6  LEV     1      20.947 -14.385 -12.617  1.00  0.00     0.285 C 
HETATM    9  C7  LEV     1      22.414 -14.132 -13.028  1.00  0.00     0.098 C 
HETATM   10  C8  LEV     1      22.526 -13.990 -14.569  1.00  0.00     0.135 C 
HETATM   11  C9  LEV     1      21.534 -12.923 -15.091  1.00  0.00     0.054 C 
HETATM   12  C10 LEV     1      21.553 -12.842 -16.636  1.00  0.00     0.049 C 
HETATM   13  C11 LEV     1      20.544 -11.803 -17.152  1.00  0.00     0.206 C 
HETATM   14  C12 LEV     1      19.115 -12.130 -16.632  1.00  0.00     0.287 C 
HETATM   15  F1  LEV     1      20.963 -10.551 -16.734  1.00  0.00    -0.247 F 
ENDROOT
BRANCH  14  16
HETATM   16  N2  LEV     1      18.036 -11.247 -17.159  1.00  0.00     0.102 N 
HETATM   17  C13 LEV     1      18.383  -9.821 -17.293  1.00  0.00     0.303 C 
HETATM   18  C14 LEV     1      17.115  -9.012 -17.597  1.00  0.00     0.302 C 
HETATM   19  N3  LEV     1      16.411  -9.504 -18.799  1.00  0.00     0.087 N 
HETATM   20  C15 LEV     1      16.179 -10.963 -18.751  1.00  0.00     0.302 C 
HETATM   21  C17 LEV     1      17.064  -9.082 -20.050  1.00  0.00     0.310 C 
HETATM   22  C16 LEV     1      17.454 -11.752 -18.416  1.00  0.00     0.303 C 
ENDBRANCH  14  16
BRANCH  10  23
HETATM   23  O2  LEV     1      23.843 -13.671 -14.951  1.00  0.00    -0.395 OA
HETATM   24  H6  LEV     1      24.260 -14.496 -15.313  1.00  0.00     0.210 HD
ENDBRANCH  10  23
BRANCH   9  25
HETATM   25  C18 LEV     1      23.354 -15.240 -12.491  1.00  0.00     0.262 C 
BRANCH  25  26
HETATM   26  O3  LEV     1      24.519 -14.669 -11.959  1.00  0.00    -0.371 OA
HETATM   27  H12 LEV     1      24.751 -13.904 -12.547  1.00  0.00     0.212 HD
ENDBRANCH  25  26
BRANCH  25  28
HETATM   28  O4  LEV     1      23.703 -16.127 -13.524  1.00  0.00    -0.371 OA
HETATM   29  H20 LEV     1      24.692 -16.096 -13.606  1.00  0.00     0.212 HD
ENDBRANCH  25  28
ENDBRANCH   9  25
TORSDOF 5
ENDMDL
