MODEL 1
REMARK VINA RESULT:    -6.443      0.000      0.000
REMARK INTER + INTRA:         -12.615
REMARK INTER:                 -10.587
REMARK INTRA:                  -2.028
REMARK UNBOUND:                -2.028
REMARK  16 active torsions:
REMARK  status: ('A' for Active; 'I' for Inactive)
REMARK    1  A    between atoms: C2_2  and  N5_32 
REMARK    2  A    between atoms: C3_3  and  O7_21 
REMARK    3  A    between atoms: C4_4  and  O6_20 
REMARK    4  A    between atoms: C5_5  and  O1_8 
REMARK    5  A    between atoms: C6_6  and  N1_7 
REMARK    6  A    between atoms: O1_8  and  C7_9 
REMARK    7  A    between atoms: C8_10  and  O5_19 
REMARK    8  A    between atoms: C9_11  and  N2_18 
REMARK    9  A    between atoms: C10_12  and  O4_17 
REMARK   10  A    between atoms: C11_13  and  C12_15 
REMARK   11  A    between atoms: C12_15  and  O3_16 
REMARK   12  A    between atoms: O7_21  and  C13_22 
REMARK   13  A    between atoms: C14_23  and  N4_31 
REMARK   14  A    between atoms: C16_25  and  O9_30 
REMARK   15  A    between atoms: C17_26  and  C18_28 
REMARK   16  A    between atoms: C18_28  and  N3_29 
ROOT
HETATM    1  C1  TOB     1       8.574 -31.420  -4.039  1.00  0.00     0.076 C 
HETATM    2  C2  TOB     1       9.089 -30.305  -4.980  1.00  0.00     0.251 C 
HETATM    3  C3  TOB     1      10.625 -30.103  -4.904  1.00  0.00     0.189 C 
HETATM    4  C4  TOB     1      11.403 -31.433  -5.006  1.00  0.00     0.180 C 
HETATM    5  C5  TOB     1      10.929 -32.485  -3.963  1.00  0.00     0.189 C 
HETATM    6  C6  TOB     1       9.403 -32.728  -4.012  1.00  0.00     0.251 C 
ENDROOT
BRANCH   5   7
HETATM    7  O1  TOB     1      11.261 -32.065  -2.647  1.00  0.00    -0.348 OA
BRANCH   7   8
HETATM    8  C7  TOB     1      10.765 -32.939  -1.642  1.00  0.00     0.291 C 
HETATM    9  C8  TOB     1      10.176 -32.092  -0.485  1.00  0.00     0.208 C 
HETATM   10  C9  TOB     1      10.105 -32.896   0.845  1.00  0.00     0.282 C 
HETATM   11  C10 TOB     1      10.154 -34.409   0.570  1.00  0.00     0.184 C 
HETATM   12  C11 TOB     1      11.441 -34.735  -0.242  1.00  0.00     0.179 C 
HETATM   13  O2  TOB     1      11.842 -33.727  -1.169  1.00  0.00    -0.349 OA
BRANCH   9  14
HETATM   14  O5  TOB     1      10.906 -30.904  -0.293  1.00  0.00    -0.388 OA
HETATM   15  H21 TOB     1      10.716 -30.580   0.626  1.00  0.00     0.210 HD
ENDBRANCH   9  14
BRANCH  10  16
HETATM   16  N2  TOB     1       8.902 -32.553   1.610  1.00  0.00     0.088 N 
HETATM   17  H19 TOB     1       8.606 -31.584   1.347  1.00  0.00     0.313 HD
HETATM   18  H20 TOB     1       8.125 -33.202   1.348  1.00  0.00     0.313 HD
ENDBRANCH  10  16
BRANCH  11  19
HETATM   19  O4  TOB     1      10.175 -35.124   1.780  1.00  0.00    -0.391 OA
HETATM   20  H18 TOB     1      10.371 -34.471   2.501  1.00  0.00     0.210 HD
ENDBRANCH  11  19
BRANCH  12  21
HETATM   21  C12 TOB     1      11.377 -36.106  -0.933  1.00  0.00     0.198 C 
BRANCH  21  22
HETATM   22  O3  TOB     1      10.242 -36.828  -0.535  1.00  0.00    -0.398 OA
HETATM   23  H17 TOB     1       9.451 -36.259  -0.731  1.00  0.00     0.209 HD
ENDBRANCH  21  22
ENDBRANCH  12  21
ENDBRANCH   7   8
ENDBRANCH   5   7
BRANCH   4  24
HETATM   24  O6  TOB     1      11.321 -31.946  -6.311  1.00  0.00    -0.390 OA
HETATM   25  H22 TOB     1      11.243 -32.933  -6.230  1.00  0.00     0.210 HD
ENDBRANCH   4  24
BRANCH   6  26
HETATM   26  N1  TOB     1       9.032 -33.669  -5.075  1.00  0.00     0.085 N 
HETATM   27  H8  TOB     1       9.877 -33.900  -5.646  1.00  0.00     0.313 HD
HETATM   28  H9  TOB     1       8.656 -34.557  -4.688  1.00  0.00     0.313 HD
ENDBRANCH   6  26
BRANCH   3  29
HETATM   29  O7  TOB     1      10.986 -29.479  -3.677  1.00  0.00    -0.349 OA
BRANCH  29  30
HETATM   30  C13 TOB     1      10.027 -28.530  -3.226  1.00  0.00     0.293 C 
HETATM   31  C14 TOB     1      10.544 -27.098  -3.511  1.00  0.00     0.275 C 
HETATM   32  C15 TOB     1       9.856 -26.060  -2.589  1.00  0.00     0.074 C 
HETATM   33  C16 TOB     1       8.511 -26.580  -2.065  1.00  0.00     0.151 C 
HETATM   34  C17 TOB     1       8.719 -27.950  -1.348  1.00  0.00     0.181 C 
HETATM   35  O8  TOB     1       9.842 -28.686  -1.830  1.00  0.00    -0.349 OA
BRANCH  31  36
HETATM   36  N4  TOB     1      12.001 -27.029  -3.368  1.00  0.00     0.087 N 
HETATM   37  H34 TOB     1      12.407 -26.628  -4.246  1.00  0.00     0.313 HD
HETATM   38  H35 TOB     1      12.244 -26.385  -2.580  1.00  0.00     0.313 HD
ENDBRANCH  31  36
BRANCH  33  39
HETATM   39  O9  TOB     1       7.961 -25.651  -1.167  1.00  0.00    -0.393 OA
HETATM   40  H33 TOB     1       7.959 -24.772  -1.628  1.00  0.00     0.210 HD
ENDBRANCH  33  39
BRANCH  34  41
HETATM   41  C18 TOB     1       7.459 -28.845  -1.385  1.00  0.00     0.301 C 
BRANCH  41  42
HETATM   42  N3  TOB     1       7.445 -29.837  -0.310  1.00  0.00     0.080 N 
HETATM   43  H31 TOB     1       6.716 -29.577   0.393  1.00  0.00     0.312 HD
HETATM   44  H32 TOB     1       7.199 -30.771  -0.708  1.00  0.00     0.312 HD
ENDBRANCH  41  42
ENDBRANCH  34  41
ENDBRANCH  29  30
ENDBRANCH   3  29
BRANCH   2  45
HETATM   45  N5  TOB     1       8.632 -30.465  -6.365  1.00  0.00     0.085 N 
HETATM   46  H36 TOB     1       7.924 -29.748  -6.618  1.00  0.00     0.313 HD
HETATM   47  H37 TOB     1       9.447 -30.341  -7.010  1.00  0.00     0.313 HD
ENDBRANCH   2  45
TORSDOF 16
ENDMDL
