MODEL 1
REMARK VINA RESULT:    -6.711      0.000      0.000
REMARK INTER + INTRA:          -8.767
REMARK INTER:                  -8.477
REMARK INTRA:                  -0.290
REMARK UNBOUND:                -0.290
REMARK  6 active torsions:
REMARK  status: ('A' for Active; 'I' for Inactive)
REMARK    1  A    between atoms: C3_3  and  N1_4 
REMARK    2  A    between atoms: C5_6  and  C17_22 
REMARK    3  A    between atoms: C6_7  and  O1_8 
REMARK    4  A    between atoms: C10_12  and  N2_15 
REMARK    5  A    between atoms: C17_22  and  O2_23 
REMARK    6  A    between atoms: C17_22  and  O3_24 
ROOT
HETATM    1  N1  CIP     1     -40.586  -4.342  39.675  1.00  0.00     0.099 N 
HETATM    2  C4  CIP     1     -41.548  -3.328  40.196  1.00  0.00     0.285 C 
HETATM    3  C5  CIP     1     -41.567  -3.141  41.745  1.00  0.00     0.098 C 
HETATM    4  C6  CIP     1     -40.135  -2.986  42.357  1.00  0.00     0.135 C 
HETATM    5  C7  CIP     1     -39.030  -3.289  41.321  1.00  0.00     0.051 C 
HETATM    6  C8  CIP     1     -37.609  -3.350  41.944  1.00  0.00     0.049 C 
HETATM    7  C9  CIP     1     -37.074  -4.781  42.086  1.00  0.00     0.204 C 
HETATM    8  C10 CIP     1     -37.059  -5.571  40.729  1.00  0.00     0.258 C 
HETATM    9  C11 CIP     1     -38.184  -5.057  39.769  1.00  0.00     0.075 C 
HETATM   10  C12 CIP     1     -39.416  -4.581  40.561  1.00  0.00     0.232 C 
HETATM   11  F1  CIP     1     -35.820  -4.714  42.669  1.00  0.00    -0.247 F 
ENDROOT
BRANCH   8  12
HETATM   12  N2  CIP     1     -35.690  -5.571  40.121  1.00  0.00     0.099 N 
HETATM   13  C13 CIP     1     -35.316  -6.918  39.598  1.00  0.00     0.302 C 
HETATM   14  C14 CIP     1     -35.295  -6.983  38.063  1.00  0.00     0.299 C 
HETATM   15  N3  CIP     1     -34.331  -6.029  37.493  1.00  0.00     0.086 N 
HETATM   16  C15 CIP     1     -34.210  -4.781  38.268  1.00  0.00     0.299 C 
HETATM   17  H13 CIP     1     -34.647  -5.792  36.523  1.00  0.00     0.315 HD
HETATM   18  C16 CIP     1     -35.457  -4.498  39.118  1.00  0.00     0.302 C 
ENDBRANCH   8  12
BRANCH   1  19
HETATM   19  C3  CIP     1     -41.277  -5.605  39.342  1.00  0.00     0.223 A 
HETATM   20  C1  CIP     1     -40.906  -6.161  37.973  1.00  0.00     0.038 A 
HETATM   21  C2  CIP     1     -42.253  -5.498  38.175  1.00  0.00     0.038 A 
ENDBRANCH   1  19
BRANCH   4  22
HETATM   22  O1  CIP     1     -39.960  -1.699  42.902  1.00  0.00    -0.395 OA
HETATM   23  H4  CIP     1     -39.493  -1.803  43.772  1.00  0.00     0.210 HD
ENDBRANCH   4  22
BRANCH   3  24
HETATM   24  C17 CIP     1     -42.422  -4.188  42.508  1.00  0.00     0.262 C 
BRANCH  24  25
HETATM   25  O2  CIP     1     -42.629  -3.796  43.844  1.00  0.00    -0.371 OA
HETATM   26  H12 CIP     1     -41.877  -3.207  44.107  1.00  0.00     0.212 HD
ENDBRANCH  24  25
BRANCH  24  27
HETATM   27  O3  CIP     1     -43.644  -4.429  41.861  1.00  0.00    -0.371 OA
HETATM   28  H18 CIP     1     -43.423  -4.818  40.975  1.00  0.00     0.212 HD
ENDBRANCH  24  27
ENDBRANCH   3  24
TORSDOF 6
ENDMDL
