MODEL 1
REMARK VINA RESULT:    -8.203      0.000      0.000
REMARK INTER + INTRA:         -18.305
REMARK INTER:                 -14.438
REMARK INTRA:                  -3.868
REMARK UNBOUND:                -3.868
REMARK  17 active torsions:
REMARK  status: ('A' for Active; 'I' for Inactive)
REMARK    1  A    between atoms: C3_3  and  C21_38 
REMARK    2  A    between atoms: C3_3  and  O12_40 
REMARK    3  A    between atoms: C4_4  and  O6_25 
REMARK    4  A    between atoms: C5_5  and  O2_7 
REMARK    5  A    between atoms: O2_7  and  C6_8 
REMARK    6  A    between atoms: C7_9  and  N4_21 
REMARK    7  A    between atoms: C8_10  and  O5_20 
REMARK    8  A    between atoms: C9_11  and  N1_16 
REMARK    9  A    between atoms: C10_12  and  O4_15 
REMARK   10  A    between atoms: C11_13  and  O3_14 
REMARK       I    between atoms: N1_16  and  C12_17 
REMARK       I    between atoms: C12_17  and  N2_18 
REMARK       I    between atoms: C12_17  and  N3_19 
REMARK       I    between atoms: N4_21  and  C13_22 
REMARK       I    between atoms: C13_22  and  N5_23 
REMARK       I    between atoms: C13_22  and  N6_24 
REMARK   11  A    between atoms: O6_25  and  C14_26 
REMARK   12  A    between atoms: C15_27  and  N7_36 
REMARK   13  A    between atoms: C16_28  and  O10_35 
REMARK   14  A    between atoms: C17_29  and  O9_34 
REMARK   15  A    between atoms: C18_30  and  C19_32 
REMARK   16  A    between atoms: C19_32  and  O8_33 
REMARK   17  A    between atoms: C21_38  and  O11_39 
ROOT
HETATM    1  C6  STM     1     -40.827  -4.068  42.981  1.00  0.00     0.192 C 
HETATM    2  C7  STM     1     -39.949  -2.808  42.753  1.00  0.00     0.287 C 
HETATM    3  C8  STM     1     -40.815  -1.564  42.414  1.00  0.00     0.190 C 
HETATM    4  C9  STM     1     -41.884  -1.327  43.522  1.00  0.00     0.287 C 
HETATM    5  C10 STM     1     -42.745  -2.590  43.779  1.00  0.00     0.185 C 
HETATM    6  C11 STM     1     -41.848  -3.802  44.115  1.00  0.00     0.180 C 
ENDROOT
BRANCH   1   7
HETATM    7  O2  STM     1     -39.969  -5.147  43.330  1.00  0.00    -0.348 OA
BRANCH   7   8
HETATM    8  C5  STM     1     -40.171  -6.302  42.523  1.00  0.00     0.293 C 
HETATM    9  C4  STM     1     -38.821  -6.820  42.024  1.00  0.00     0.218 C 
HETATM   10  C3  STM     1     -38.417  -7.848  43.088  1.00  0.00     0.135 C 
HETATM   11  C2  STM     1     -39.733  -8.055  43.895  1.00  0.00     0.160 C 
HETATM   12  C1  STM     1     -40.198  -9.512  44.000  1.00  0.00     0.043 C 
HETATM   13  O1  STM     1     -40.766  -7.308  43.299  1.00  0.00    -0.350 OA
BRANCH   9  14
HETATM   14  O6  STM     1     -38.986  -7.450  40.759  1.00  0.00    -0.346 OA
BRANCH  14  15
HETATM   15  C14 STM     1     -38.275  -6.775  39.723  1.00  0.00     0.297 C 
HETATM   16  C15 STM     1     -39.272  -6.233  38.655  1.00  0.00     0.305 C 
HETATM   17  C16 STM     1     -38.609  -5.174  37.727  1.00  0.00     0.187 C 
HETATM   18  C17 STM     1     -37.069  -5.208  37.859  1.00  0.00     0.180 C 
HETATM   19  C18 STM     1     -36.634  -5.110  39.361  1.00  0.00     0.179 C 
HETATM   20  O7  STM     1     -37.549  -5.702  40.290  1.00  0.00    -0.349 OA
BRANCH  16  21
HETATM   21  N7  STM     1     -40.548  -5.721  39.222  1.00  0.00     0.091 N 
HETATM   22  C20 STM     1     -40.723  -4.260  39.146  1.00  0.00     0.307 C 
HETATM   23  H34 STM     1     -40.608  -6.000  40.226  1.00  0.00     0.316 HD
ENDBRANCH  16  21
BRANCH  17  24
HETATM   24  O10 STM     1     -38.984  -5.427  36.395  1.00  0.00    -0.391 OA
HETATM   25  H33 STM     1     -39.830  -4.936  36.233  1.00  0.00     0.210 HD
ENDBRANCH  17  24
BRANCH  18  26
HETATM   26  O9  STM     1     -36.465  -4.187  37.103  1.00  0.00    -0.390 OA
HETATM   27  H32 STM     1     -36.298  -3.417  37.702  1.00  0.00     0.210 HD
ENDBRANCH  18  26
BRANCH  19  28
HETATM   28  C19 STM     1     -35.225  -5.691  39.573  1.00  0.00     0.198 C 
BRANCH  28  29
HETATM   29  O8  STM     1     -34.255  -4.812  39.070  1.00  0.00    -0.398 OA
HETATM   30  H31 STM     1     -34.167  -4.995  38.095  1.00  0.00     0.209 HD
ENDBRANCH  28  29
ENDBRANCH  19  28
ENDBRANCH  14  15
ENDBRANCH   9  14
BRANCH  10  31
HETATM   31  C21 STM     1     -37.277  -7.306  43.994  1.00  0.00     0.207 C 
BRANCH  31  32
HETATM   32  O11 STM     1     -37.766  -6.390  44.935  1.00  0.00    -0.398 OA
HETATM   33  H6  STM     1     -36.996  -5.804  45.171  1.00  0.00     0.209 HD
ENDBRANCH  31  32
ENDBRANCH  10  31
BRANCH  10  34
HETATM   34  O12 STM     1     -37.974  -9.032  42.452  1.00  0.00    -0.382 OA
HETATM   35  H39 STM     1     -38.533  -9.185  41.652  1.00  0.00     0.210 HD
ENDBRANCH  10  34
ENDBRANCH   7   8
ENDBRANCH   1   7
BRANCH   2  36
HETATM   36  N4  STM     1     -38.846  -3.051  41.787  1.00  0.00     0.156 N 
HETATM   37  C13 STM     1     -37.472  -2.987  42.315  1.00  0.00     0.674 C 
HETATM   38  N5  STM     1     -36.542  -2.774  41.200  1.00  0.00     0.142 N 
HETATM   39  N6  STM     1     -37.129  -4.229  43.022  1.00  0.00     0.142 N 
HETATM   40  H20 STM     1     -35.596  -2.545  41.594  1.00  0.00     0.318 HD
HETATM   41  H21 STM     1     -36.852  -1.930  40.663  1.00  0.00     0.318 HD
HETATM   42  H22 STM     1     -36.582  -3.981  43.889  1.00  0.00     0.318 HD
HETATM   43  H23 STM     1     -36.507  -4.838  42.434  1.00  0.00     0.318 HD
HETATM   44  H3  STM     1     -38.990  -3.977  41.316  1.00  0.00     0.321 HD
ENDBRANCH   2  36
BRANCH   6  45
HETATM   45  O3  STM     1     -42.663  -4.932  44.291  1.00  0.00    -0.390 OA
HETATM   46  H13 STM     1     -43.010  -5.175  43.395  1.00  0.00     0.210 HD
ENDBRANCH   6  45
BRANCH   3  47
HETATM   47  O5  STM     1     -40.002  -0.424  42.268  1.00  0.00    -0.391 OA
HETATM   48  H19 STM     1     -39.489  -0.300  43.110  1.00  0.00     0.210 HD
ENDBRANCH   3  47
BRANCH   5  49
HETATM   49  O4  STM     1     -43.621  -2.371  44.856  1.00  0.00    -0.391 OA
HETATM   50  H14 STM     1     -44.524  -2.197  44.470  1.00  0.00     0.210 HD
ENDBRANCH   5  49
BRANCH   4  51
HETATM   51  N1  STM     1     -42.732  -0.125  43.321  1.00  0.00     0.156 N 
HETATM   52  C12 STM     1     -42.661   0.999  44.282  1.00  0.00     0.674 C 
HETATM   53  N2  STM     1     -41.278   1.365  44.588  1.00  0.00     0.142 N 
HETATM   54  N3  STM     1     -43.387   0.694  45.513  1.00  0.00     0.142 N 
HETATM   55  H15 STM     1     -41.287   2.160  45.274  1.00  0.00     0.318 HD
HETATM   56  H16 STM     1     -40.842   1.759  43.719  1.00  0.00     0.318 HD
HETATM   57  H17 STM     1     -43.392   1.548  46.112  1.00  0.00     0.318 HD
HETATM   58  H18 STM     1     -44.389   0.523  45.266  1.00  0.00     0.318 HD
HETATM   59  H1  STM     1     -43.729  -0.417  43.206  1.00  0.00     0.321 HD
ENDBRANCH   4  51
TORSDOF 17
ENDMDL
