MODEL 1
REMARK VINA RESULT:    -6.441      0.000      0.000
REMARK INTER + INTRA:          -8.328
REMARK INTER:                  -8.135
REMARK INTRA:                  -0.192
REMARK UNBOUND:                -0.192
REMARK  6 active torsions:
REMARK  status: ('A' for Active; 'I' for Inactive)
REMARK    1  A    between atoms: C3_3  and  N1_4 
REMARK    2  A    between atoms: C5_6  and  C17_22 
REMARK    3  A    between atoms: C6_7  and  O1_8 
REMARK    4  A    between atoms: C10_12  and  N2_15 
REMARK    5  A    between atoms: C17_22  and  O2_23 
REMARK    6  A    between atoms: C17_22  and  O3_24 
ROOT
HETATM    1  N1  CIP     1      28.391 -55.954 -10.821  1.00  0.00     0.099 N 
HETATM    2  C4  CIP     1      28.754 -57.124 -11.671  1.00  0.00     0.285 C 
HETATM    3  C5  CIP     1      30.081 -57.855 -11.294  1.00  0.00     0.098 C 
HETATM    4  C6  CIP     1      30.192 -58.162  -9.763  1.00  0.00     0.135 C 
HETATM    5  C7  CIP     1      29.077 -57.465  -8.953  1.00  0.00     0.051 C 
HETATM    6  C8  CIP     1      29.279 -57.575  -7.418  1.00  0.00     0.049 C 
HETATM    7  C9  CIP     1      29.771 -56.269  -6.779  1.00  0.00     0.204 C 
HETATM    8  C10 CIP     1      28.831 -55.046  -7.074  1.00  0.00     0.258 C 
HETATM    9  C11 CIP     1      28.089 -55.227  -8.439  1.00  0.00     0.075 C 
HETATM   10  C12 CIP     1      28.957 -56.003  -9.447  1.00  0.00     0.232 C 
HETATM   11  F1  CIP     1      29.935 -56.491  -5.422  1.00  0.00    -0.247 F 
ENDROOT
BRANCH   8  12
HETATM   12  N2  CIP     1      27.922 -54.775  -5.915  1.00  0.00     0.099 N 
HETATM   13  C13 CIP     1      28.380 -53.601  -5.114  1.00  0.00     0.302 C 
HETATM   14  C14 CIP     1      27.477 -52.369  -5.282  1.00  0.00     0.299 C 
HETATM   15  N3  CIP     1      26.095 -52.650  -4.863  1.00  0.00     0.086 N 
HETATM   16  C15 CIP     1      25.665 -54.032  -5.140  1.00  0.00     0.299 C 
HETATM   17  H13 CIP     1      25.462 -51.992  -5.378  1.00  0.00     0.315 HD
HETATM   18  C16 CIP     1      26.480 -54.683  -6.266  1.00  0.00     0.302 C 
ENDBRANCH   8  12
BRANCH   1  19
HETATM   19  C3  CIP     1      28.724 -54.684 -11.497  1.00  0.00     0.223 A 
HETATM   20  C1  CIP     1      27.571 -53.689 -11.532  1.00  0.00     0.038 A 
HETATM   21  C2  CIP     1      27.955 -54.440 -12.791  1.00  0.00     0.038 A 
ENDBRANCH   1  19
BRANCH   4  22
HETATM   22  O1  CIP     1      30.177 -59.550  -9.529  1.00  0.00    -0.395 OA
HETATM   23  H4  CIP     1      29.270 -59.789  -9.204  1.00  0.00     0.210 HD
ENDBRANCH   4  22
BRANCH   3  24
HETATM   24  C17 CIP     1      31.364 -57.185 -11.854  1.00  0.00     0.262 C 
BRANCH  24  25
HETATM   25  O2  CIP     1      32.438 -57.318 -10.955  1.00  0.00    -0.371 OA
HETATM   26  H12 CIP     1      33.101 -56.612 -11.167  1.00  0.00     0.212 HD
ENDBRANCH  24  25
BRANCH  24  27
HETATM   27  O3  CIP     1      31.702 -57.691 -13.119  1.00  0.00    -0.371 OA
HETATM   28  H18 CIP     1      32.498 -57.181 -13.424  1.00  0.00     0.212 HD
ENDBRANCH  24  27
ENDBRANCH   3  24
TORSDOF 6
ENDMDL
