MODEL 1
REMARK VINA RESULT:    -6.304      0.000      0.000
REMARK INTER + INTRA:          -7.983
REMARK INTER:                  -7.594
REMARK INTRA:                  -0.389
REMARK UNBOUND:                -0.389
REMARK  5 active torsions:
REMARK  status: ('A' for Active; 'I' for Inactive)
REMARK    1  A    between atoms: C2_2  and  N1_3 
REMARK    2  A    between atoms: C4_5  and  C12_15 
REMARK    3  A    between atoms: C5_6  and  O1_7 
REMARK    4  A    between atoms: C12_15  and  O2_16 
REMARK    5  A    between atoms: C12_15  and  O3_17 
ROOT
HETATM    1  N1  NDX     1       4.892 -52.526  -1.134  1.00  0.00     0.122 N 
HETATM    2  C3  NDX     1       4.113 -51.313  -1.455  1.00  0.00     0.287 C 
HETATM    3  C4  NDX     1       4.600 -50.128  -0.604  1.00  0.00     0.098 C 
HETATM    4  C5  NDX     1       4.427 -50.474   0.896  1.00  0.00     0.136 C 
HETATM    5  C6  NDX     1       5.137 -51.806   1.242  1.00  0.00     0.079 C 
HETATM    6  C7  NDX     1       4.702 -52.943   0.280  1.00  0.00     0.460 C 
HETATM    7  N2  NDX     1       5.485 -54.168   0.561  1.00  0.00     0.122 N 
HETATM    8  C8  NDX     1       5.666 -54.494   1.994  1.00  0.00     0.219 C 
HETATM    9  C9  NDX     1       4.715 -53.713   2.918  1.00  0.00     0.036 C 
HETATM   10  C10 NDX     1       4.885 -52.200   2.721  1.00  0.00     0.013 C 
HETATM   11  C11 NDX     1       5.476 -56.000   2.187  1.00  0.00     0.042 C 
HETATM   12  H7  NDX     1       6.438 -54.061   0.137  1.00  0.00     0.319 HD
ENDROOT
BRANCH   3  13
HETATM   13  C12 NDX     1       3.873 -48.822  -1.020  1.00  0.00     0.262 C 
BRANCH  13  14
HETATM   14  O2  NDX     1       3.165 -48.993  -2.223  1.00  0.00    -0.371 OA
HETATM   15  H12 NDX     1       2.928 -48.091  -2.563  1.00  0.00     0.212 HD
ENDBRANCH  13  14
BRANCH  13  16
HETATM   16  O3  NDX     1       3.006 -48.376  -0.006  1.00  0.00    -0.371 OA
HETATM   17  H12 NDX     1       2.889 -47.399  -0.136  1.00  0.00     0.212 HD
ENDBRANCH  13  16
ENDBRANCH   3  13
BRANCH   4  18
HETATM   18  O1  NDX     1       4.906 -49.436   1.716  1.00  0.00    -0.394 OA
HETATM   19  H4  NDX     1       5.301 -49.852   2.526  1.00  0.00     0.210 HD
ENDBRANCH   4  18
BRANCH   1  20
HETATM   20  C2  NDX     1       4.654 -53.608  -2.124  1.00  0.00     0.271 C 
HETATM   21  C1  NDX     1       4.993 -53.232  -3.573  1.00  0.00     0.037 C 
ENDBRANCH   1  20
TORSDOF 5
ENDMDL
