MODEL 1
REMARK VINA RESULT:    -6.124      0.000      0.000
REMARK INTER + INTRA:         -15.645
REMARK INTER:                 -11.672
REMARK INTRA:                  -3.972
REMARK UNBOUND:                -3.972
REMARK  22 active torsions:
REMARK  status: ('A' for Active; 'I' for Inactive)
REMARK    1  A    between atoms: C2_2  and  N6_42 
REMARK    2  A    between atoms: C3_3  and  O13_41 
REMARK    3  A    between atoms: C4_4  and  O5_20 
REMARK    4  A    between atoms: C5_5  and  O1_8 
REMARK    5  A    between atoms: C6_6  and  N1_7 
REMARK    6  A    between atoms: O1_8  and  C7_9 
REMARK    7  A    between atoms: C8_10  and  N3_19 
REMARK    8  A    between atoms: C9_11  and  O4_18 
REMARK    9  A    between atoms: C10_12  and  O3_17 
REMARK   10  A    between atoms: C11_13  and  C12_15 
REMARK   11  A    between atoms: C12_15  and  N2_16 
REMARK   12  A    between atoms: O5_20  and  C13_21 
REMARK   13  A    between atoms: C14_22  and  O12_40 
REMARK   14  A    between atoms: C15_23  and  O8_28 
REMARK   15  A    between atoms: C16_24  and  C17_26 
REMARK   16  A    between atoms: C17_26  and  O7_27 
REMARK   17  A    between atoms: O8_28  and  C18_29 
REMARK   18  A    between atoms: C19_30  and  N5_39 
REMARK   19  A    between atoms: C20_31  and  O11_38 
REMARK   20  A    between atoms: C21_32  and  O10_37 
REMARK   21  A    between atoms: C22_33  and  C23_35 
REMARK   22  A    between atoms: C23_35  and  N4_36 
ROOT
HETATM    1  C1  NEO     1     -20.706 -12.570 -16.243  1.00  0.00     0.076 C 
HETATM    2  C2  NEO     1     -19.675 -12.701 -17.374  1.00  0.00     0.251 C 
HETATM    3  C3  NEO     1     -18.267 -12.967 -16.797  1.00  0.00     0.182 C 
HETATM    4  C4  NEO     1     -18.275 -14.232 -15.913  1.00  0.00     0.186 C 
HETATM    5  C5  NEO     1     -19.298 -14.100 -14.763  1.00  0.00     0.189 C 
HETATM    6  C6  NEO     1     -20.714 -13.821 -15.341  1.00  0.00     0.251 C 
ENDROOT
BRANCH   4   7
HETATM    7  O5  NEO     1     -16.979 -14.412 -15.357  1.00  0.00    -0.348 OA
BRANCH   7   8
HETATM    8  C13 NEO     1     -16.373 -15.614 -15.803  1.00  0.00     0.292 C 
HETATM    9  C14 NEO     1     -15.881 -16.417 -14.609  1.00  0.00     0.205 C 
HETATM   10  C15 NEO     1     -15.923 -17.833 -15.135  1.00  0.00     0.189 C 
HETATM   11  C16 NEO     1     -17.083 -17.756 -16.138  1.00  0.00     0.180 C 
HETATM   12  O6  NEO     1     -17.328 -16.404 -16.477  1.00  0.00    -0.348 OA
BRANCH   9  13
HETATM   13  O12 NEO     1     -14.610 -16.025 -14.144  1.00  0.00    -0.388 OA
HETATM   14  H43 NEO     1     -13.957 -16.745 -14.343  1.00  0.00     0.210 HD
ENDBRANCH   9  13
BRANCH  10  15
HETATM   15  O8  NEO     1     -14.734 -18.134 -15.854  1.00  0.00    -0.348 OA
BRANCH  15  16
HETATM   16  C18 NEO     1     -14.088 -19.279 -15.337  1.00  0.00     0.296 C 
HETATM   17  C19 NEO     1     -13.761 -20.232 -16.510  1.00  0.00     0.303 C 
HETATM   18  C20 NEO     1     -13.154 -21.552 -15.983  1.00  0.00     0.187 C 
HETATM   19  C21 NEO     1     -13.974 -22.120 -14.805  1.00  0.00     0.179 C 
HETATM   20  C22 NEO     1     -14.268 -21.001 -13.776  1.00  0.00     0.183 C 
HETATM   21  O9  NEO     1     -14.943 -19.925 -14.405  1.00  0.00    -0.349 OA
BRANCH  17  22
HETATM   22  N5  NEO     1     -14.942 -20.505 -17.340  1.00  0.00     0.090 N 
HETATM   23  H41 NEO     1     -15.025 -19.792 -18.099  1.00  0.00     0.313 HD
HETATM   24  H42 NEO     1     -14.818 -21.435 -17.805  1.00  0.00     0.313 HD
ENDBRANCH  17  22
BRANCH  18  25
HETATM   25  O11 NEO     1     -11.834 -21.332 -15.556  1.00  0.00    -0.391 OA
HETATM   26  H40 NEO     1     -11.419 -20.708 -16.207  1.00  0.00     0.210 HD
ENDBRANCH  18  25
BRANCH  19  27
HETATM   27  O10 NEO     1     -15.179 -22.672 -15.270  1.00  0.00    -0.390 OA
HETATM   28  H39 NEO     1     -15.333 -22.303 -16.177  1.00  0.00     0.210 HD
ENDBRANCH  19  27
BRANCH  20  29
HETATM   29  C23 NEO     1     -15.138 -21.496 -12.600  1.00  0.00     0.301 C 
BRANCH  29  30
HETATM   30  N4  NEO     1     -16.259 -20.603 -12.312  1.00  0.00     0.080 N 
HETATM   31  H37 NEO     1     -16.827 -20.470 -13.179  1.00  0.00     0.312 HD
HETATM   32  H38 NEO     1     -16.870 -21.030 -11.579  1.00  0.00     0.312 HD
ENDBRANCH  29  30
ENDBRANCH  20  29
ENDBRANCH  15  16
ENDBRANCH  10  15
BRANCH  11  33
HETATM   33  C17 NEO     1     -18.374 -18.397 -15.596  1.00  0.00     0.198 C 
BRANCH  33  34
HETATM   34  O7  NEO     1     -18.086 -19.479 -14.750  1.00  0.00    -0.398 OA
HETATM   35  H29 NEO     1     -18.672 -19.388 -13.954  1.00  0.00     0.209 HD
ENDBRANCH  33  34
ENDBRANCH  11  33
ENDBRANCH   7   8
ENDBRANCH   4   7
BRANCH   3  36
HETATM   36  O13 NEO     1     -17.361 -13.140 -17.858  1.00  0.00    -0.391 OA
HETATM   37  H44 NEO     1     -17.483 -12.371 -18.475  1.00  0.00     0.210 HD
ENDBRANCH   3  36
BRANCH   5  38
HETATM   38  O1  NEO     1     -19.286 -15.330 -14.055  1.00  0.00    -0.349 OA
BRANCH  38  39
HETATM   39  C7  NEO     1     -19.500 -15.183 -12.655  1.00  0.00     0.296 C 
HETATM   40  C8  NEO     1     -18.256 -15.638 -11.870  1.00  0.00     0.303 C 
HETATM   41  C9  NEO     1     -18.038 -17.150 -12.074  1.00  0.00     0.187 C 
HETATM   42  C10 NEO     1     -19.333 -17.935 -11.783  1.00  0.00     0.179 C 
HETATM   43  C11 NEO     1     -20.520 -17.308 -12.560  1.00  0.00     0.183 C 
HETATM   44  O2  NEO     1     -20.637 -15.927 -12.244  1.00  0.00    -0.349 OA
BRANCH  40  45
HETATM   45  N3  NEO     1     -17.079 -14.885 -12.309  1.00  0.00     0.090 N 
HETATM   46  H21 NEO     1     -16.747 -14.293 -11.512  1.00  0.00     0.313 HD
HETATM   47  H22 NEO     1     -16.308 -15.566 -12.497  1.00  0.00     0.313 HD
ENDBRANCH  40  45
BRANCH  41  48
HETATM   48  O4  NEO     1     -16.979 -17.616 -11.272  1.00  0.00    -0.391 OA
HETATM   49  H20 NEO     1     -16.255 -16.938 -11.307  1.00  0.00     0.210 HD
ENDBRANCH  41  48
BRANCH  42  50
HETATM   50  O3  NEO     1     -19.153 -19.272 -12.172  1.00  0.00    -0.390 OA
HETATM   51  H19 NEO     1     -19.635 -19.391 -13.032  1.00  0.00     0.210 HD
ENDBRANCH  42  50
BRANCH  43  52
HETATM   52  C12 NEO     1     -21.868 -17.973 -12.196  1.00  0.00     0.301 C 
BRANCH  52  53
HETATM   53  N2  NEO     1     -21.896 -18.527 -10.842  1.00  0.00     0.080 N 
HETATM   54  H17 NEO     1     -22.193 -19.526 -10.875  1.00  0.00     0.312 HD
HETATM   55  H18 NEO     1     -22.573 -17.994 -10.249  1.00  0.00     0.312 HD
ENDBRANCH  52  53
ENDBRANCH  43  52
ENDBRANCH  38  39
ENDBRANCH   5  38
BRANCH   2  56
HETATM   56  N6  NEO     1     -19.693 -11.484 -18.191  1.00  0.00     0.085 N 
HETATM   57  H45 NEO     1     -18.710 -11.171 -18.368  1.00  0.00     0.313 HD
HETATM   58  H46 NEO     1     -20.126 -11.699 -19.120  1.00  0.00     0.313 HD
ENDBRANCH   2  56
BRANCH   6  59
HETATM   59  N1  NEO     1     -21.695 -13.657 -14.266  1.00  0.00     0.085 N 
HETATM   60  H8  NEO     1     -21.201 -13.398 -13.382  1.00  0.00     0.313 HD
HETATM   61  H9  NEO     1     -22.339 -12.868 -14.509  1.00  0.00     0.313 HD
ENDBRANCH   6  59
TORSDOF 22
ENDMDL
