MODEL 1
REMARK VINA RESULT:    -6.498      0.000      0.000
REMARK INTER + INTRA:         -12.728
REMARK INTER:                 -10.677
REMARK INTRA:                  -2.051
REMARK UNBOUND:                -2.051
REMARK  16 active torsions:
REMARK  status: ('A' for Active; 'I' for Inactive)
REMARK    1  A    between atoms: C2_2  and  N5_32 
REMARK    2  A    between atoms: C3_3  and  O7_21 
REMARK    3  A    between atoms: C4_4  and  O6_20 
REMARK    4  A    between atoms: C5_5  and  O1_8 
REMARK    5  A    between atoms: C6_6  and  N1_7 
REMARK    6  A    between atoms: O1_8  and  C7_9 
REMARK    7  A    between atoms: C8_10  and  O5_19 
REMARK    8  A    between atoms: C9_11  and  N2_18 
REMARK    9  A    between atoms: C10_12  and  O4_17 
REMARK   10  A    between atoms: C11_13  and  C12_15 
REMARK   11  A    between atoms: C12_15  and  O3_16 
REMARK   12  A    between atoms: O7_21  and  C13_22 
REMARK   13  A    between atoms: C14_23  and  N4_31 
REMARK   14  A    between atoms: C16_25  and  O9_30 
REMARK   15  A    between atoms: C17_26  and  C18_28 
REMARK   16  A    between atoms: C18_28  and  N3_29 
ROOT
HETATM    1  C1  TOB     1      26.659 -54.704  -9.498  1.00  0.00     0.076 C 
HETATM    2  C2  TOB     1      27.511 -54.844  -8.214  1.00  0.00     0.251 C 
HETATM    3  C3  TOB     1      29.032 -54.953  -8.500  1.00  0.00     0.189 C 
HETATM    4  C4  TOB     1      29.529 -53.867  -9.480  1.00  0.00     0.180 C 
HETATM    5  C5  TOB     1      28.716 -53.841 -10.806  1.00  0.00     0.189 C 
HETATM    6  C6  TOB     1      27.193 -53.720 -10.569  1.00  0.00     0.251 C 
ENDROOT
BRANCH   5   7
HETATM    7  O1  TOB     1      28.948 -55.025 -11.556  1.00  0.00    -0.348 OA
BRANCH   7   8
HETATM    8  C7  TOB     1      30.051 -54.914 -12.445  1.00  0.00     0.291 C 
HETATM    9  C8  TOB     1      29.548 -54.364 -13.804  1.00  0.00     0.208 C 
HETATM   10  C9  TOB     1      30.528 -54.702 -14.965  1.00  0.00     0.282 C 
HETATM   11  C10 TOB     1      31.927 -55.032 -14.418  1.00  0.00     0.184 C 
HETATM   12  C11 TOB     1      31.809 -56.198 -13.394  1.00  0.00     0.179 C 
HETATM   13  O2  TOB     1      30.612 -56.202 -12.618  1.00  0.00    -0.349 OA
BRANCH   9  14
HETATM   14  O5  TOB     1      28.258 -54.839 -14.106  1.00  0.00    -0.388 OA
HETATM   15  H21 TOB     1      28.060 -54.590 -15.047  1.00  0.00     0.210 HD
ENDBRANCH   9  14
BRANCH  10  16
HETATM   16  N2  TOB     1      30.602 -53.605 -15.934  1.00  0.00     0.088 N 
HETATM   17  H19 TOB     1      31.071 -52.789 -15.478  1.00  0.00     0.313 HD
HETATM   18  H20 TOB     1      31.194 -53.896 -16.746  1.00  0.00     0.313 HD
ENDBRANCH  10  16
BRANCH  11  19
HETATM   19  O4  TOB     1      32.781 -55.419 -15.465  1.00  0.00    -0.391 OA
HETATM   20  H18 TOB     1      33.551 -55.893 -15.054  1.00  0.00     0.210 HD
ENDBRANCH  11  19
BRANCH  12  21
HETATM   21  C12 TOB     1      33.041 -56.316 -12.482  1.00  0.00     0.198 C 
BRANCH  21  22
HETATM   22  O3  TOB     1      34.213 -56.514 -13.228  1.00  0.00    -0.398 OA
HETATM   23  H17 TOB     1      34.477 -55.630 -13.595  1.00  0.00     0.209 HD
ENDBRANCH  21  22
ENDBRANCH  12  21
ENDBRANCH   7   8
ENDBRANCH   5   7
BRANCH   4  24
HETATM   24  O6  TOB     1      29.520 -52.609  -8.858  1.00  0.00    -0.390 OA
HETATM   25  H22 TOB     1      29.868 -51.956  -9.520  1.00  0.00     0.210 HD
ENDBRANCH   4  24
BRANCH   6  26
HETATM   26  N1  TOB     1      26.784 -52.331 -10.332  1.00  0.00     0.085 N 
HETATM   27  H8  TOB     1      26.559 -52.202  -9.319  1.00  0.00     0.313 HD
HETATM   28  H9  TOB     1      27.539 -51.661 -10.581  1.00  0.00     0.313 HD
ENDBRANCH   6  26
BRANCH   3  29
HETATM   29  O7  TOB     1      29.344 -56.224  -9.059  1.00  0.00    -0.349 OA
BRANCH  29  30
HETATM   30  C13 TOB     1      29.954 -57.112  -8.130  1.00  0.00     0.293 C 
HETATM   31  C14 TOB     1      31.130 -57.848  -8.816  1.00  0.00     0.275 C 
HETATM   32  C15 TOB     1      31.465 -59.172  -8.084  1.00  0.00     0.074 C 
HETATM   33  C16 TOB     1      30.979 -59.146  -6.629  1.00  0.00     0.151 C 
HETATM   34  C17 TOB     1      29.453 -58.829  -6.590  1.00  0.00     0.181 C 
HETATM   35  O8  TOB     1      28.995 -58.065  -7.705  1.00  0.00    -0.349 OA
BRANCH  31  36
HETATM   36  N4  TOB     1      30.838 -58.102 -10.230  1.00  0.00     0.087 N 
HETATM   37  H34 TOB     1      30.640 -59.122 -10.355  1.00  0.00     0.313 HD
HETATM   38  H35 TOB     1      29.980 -57.572 -10.510  1.00  0.00     0.313 HD
ENDBRANCH  31  36
BRANCH  33  39
HETATM   39  O9  TOB     1      31.222 -60.392  -6.026  1.00  0.00    -0.393 OA
HETATM   40  H33 TOB     1      31.393 -60.217  -5.064  1.00  0.00     0.210 HD
ENDBRANCH  33  39
BRANCH  34  41
HETATM   41  C18 TOB     1      29.016 -58.140  -5.276  1.00  0.00     0.301 C 
BRANCH  41  42
HETATM   42  N3  TOB     1      30.031 -58.238  -4.228  1.00  0.00     0.080 N 
HETATM   43  H31 TOB     1      30.595 -59.108  -4.369  1.00  0.00     0.312 HD
HETATM   44  H32 TOB     1      30.674 -57.417  -4.294  1.00  0.00     0.312 HD
ENDBRANCH  41  42
ENDBRANCH  34  41
ENDBRANCH  29  30
ENDBRANCH   3  29
BRANCH   2  45
HETATM   45  N5  TOB     1      27.220 -53.809  -7.216  1.00  0.00     0.085 N 
HETATM   46  H36 TOB     1      26.710 -53.007  -7.636  1.00  0.00     0.313 HD
HETATM   47  H37 TOB     1      26.605 -54.215  -6.473  1.00  0.00     0.313 HD
ENDBRANCH   2  45
TORSDOF 16
ENDMDL
