REMARK  15 active torsions:
REMARK  status: ('A' for Active; 'I' for Inactive)
REMARK    1  A    between atoms: C_1  and  C_2 
REMARK    2  A    between atoms: C_1  and  O_12 
REMARK    3  A    between atoms: C_2  and  C_3 
REMARK    4  A    between atoms: C_2  and  O_8 
REMARK    5  A    between atoms: C_3  and  O_4 
REMARK    6  A    between atoms: O_4  and  C_5 
REMARK    7  A    between atoms: C_5  and  O_7 
REMARK    8  A    between atoms: O_8  and  C_9 
REMARK    9  A    between atoms: C_9  and  O_10 
REMARK   10  A    between atoms: O_12  and  P_13 
REMARK   11  A    between atoms: P_13  and  O_14 
REMARK   12  A    between atoms: P_13  and  O_15 
REMARK   13  A    between atoms: O_17  and  C_18 
REMARK   14  A    between atoms: C_18  and  C_19 
REMARK   15  A    between atoms: C_19  and  N_20 
ROOT
HETATM    1  C   PGL     1       7.335   3.405  12.778  1.00  0.00     0.211 C 
ENDROOT
BRANCH   1   2
HETATM    2  C   PGL     1       7.425   4.777  12.078  1.00  0.00     0.172 C 
BRANCH   2   3
HETATM    3  C   PGL     1       6.056   5.455  11.917  1.00  0.00     0.202 C 
BRANCH   3   4
HETATM    4  O   PGL     1       5.375   5.548  13.164  1.00  0.00    -0.381 OA
BRANCH   4   5
HETATM    5  C   PGL     1       4.529   6.612  13.485  1.00  0.00     0.146 C 
HETATM    6  C   PGL     1       3.096   6.550  13.082  1.00  0.00     0.042 C 
BRANCH   5   7
HETATM    7  O   PGL     1       4.966   7.616  14.111  1.00  0.00     0.000 OA
HETATM    8  H   PGL     1       4.238   8.091  14.495  1.00  0.00     0.000 HD
ENDBRANCH   5   7
ENDBRANCH   4   5
ENDBRANCH   3   4
ENDBRANCH   2   3
BRANCH   2   9
HETATM    9  O   PGL     1       8.380   5.650  12.698  1.00  0.00    -0.352 OA
BRANCH   9  10
HETATM   10  C   PGL     1       9.608   6.056  12.155  1.00  0.00     0.253 C 
HETATM   11  C   PGL     1      10.832   5.258  12.449  1.00  0.00     0.070 C 
BRANCH  10  12
HETATM   12  O   PGL     1       9.708   7.109  11.469  1.00  0.00    -0.372 OA
HETATM   13  H   PGL     1      10.226   7.748  11.944  1.00  0.00     0.212 HD
ENDBRANCH  10  12
ENDBRANCH   9  10
ENDBRANCH   2   9
ENDBRANCH   1   2
BRANCH   1  14
HETATM   14  O   PGL     1       6.512   2.527  12.039  1.00  0.00    -0.325 OA
BRANCH  14  15
HETATM   15  P   PGL     1       5.254   1.919  13.026  1.00  0.00     0.218 P 
HETATM   16  O   PGL     1       5.731   1.859  14.668  1.00  0.00     0.000 OA
HETATM   17  H   PGL     1       6.323   1.587  13.916  1.00  0.00     0.142 HD
BRANCH  15  18
HETATM   18  O   PGL     1       4.851   0.528  12.590  1.00  0.00    -0.337 OA
HETATM   19  H   PGL     1       4.128   0.585  11.977  1.00  0.00     0.219 HD
ENDBRANCH  15  18
BRANCH  15  20
HETATM   20  O   PGL     1       3.912   2.941  12.893  1.00  0.00    -0.337 OA
HETATM   21  H   PGL     1       4.151   3.739  13.427  1.00  0.00     0.219 HD
ENDBRANCH  15  20
BRANCH  16  22
HETATM   22  C   PGL     1       4.658   1.422  15.477  1.00  0.00     0.031 C 
BRANCH  22  23
HETATM   23  C   PGL     1       5.047   0.218  16.346  1.00  0.00     0.267 C 
BRANCH  23  24
HETATM   24  N   PGL     1       4.061  -0.848  16.198  1.00  0.00     0.078 N 
HETATM   25  H   PGL     1       3.227  -0.604  16.781  1.00  0.00     0.312 HD
HETATM   26  H   PGL     1       4.468  -1.717  16.613  1.00  0.00     0.312 HD
ENDBRANCH  23  24
ENDBRANCH  22  23
ENDBRANCH  16  22
ENDBRANCH  14  15
ENDBRANCH   1  14
TORSDOF 15
