@<TRIPOS>MOLECULE
*****
 54 57 0 0 0
SMALL
GASTEIGER

@<TRIPOS>ATOM
      1  C1        27.5808  -54.2801  -11.6134 C.3     1  CIP1       -0.0359
      2  N1        28.5630  -55.8693  -11.2405 N.3     1  CIP1       -0.2955
      3  O1        29.9730  -59.5303   -9.5552 O.3     1  CIP1       -0.3910
      4  C2        27.8789  -54.8555  -12.9406 C.3     1  CIP1       -0.0359
      5  N2        28.0001  -54.4660   -6.2806 N.3     1  CIP1       -0.2942
      6  O2        32.5788  -57.2845  -11.0114 O.3     1  CIP1       -0.3668
      7  C3        29.0567  -54.6302  -11.9746 C.3     1  CIP1        0.0108
      8  N3        26.3110  -52.5708   -4.7709 N.3     1  CIP1       -0.3136
      9  O3        31.8758  -57.6807  -13.1297 O.3     1  CIP1       -0.3668
     10  C4        28.9151  -57.2027  -11.8895 C.3     1  CIP1        0.0093
     11  C5        30.1998  -57.8987  -11.3644 C.3     1  CIP1        0.0487
     12  C6        30.1194  -58.1295   -9.8178 C.3     1  CIP1        0.0681
     13  C7        28.9409  -57.3534   -9.1825 C.3     1  CIP1        0.0038
     14  C8        28.9962  -57.3932   -7.6280 C.3     1  CIP1       -0.0136
     15  C9        29.7107  -56.1526   -7.0677 C.3     1  CIP1        0.1168
     16  C10       28.9113  -54.8598   -7.4059 C.3     1  CIP1        0.0430
     17  C11       28.2174  -54.9573   -8.8036 C.3     1  CIP1       -0.0186
     18  C12       28.9834  -55.9074   -9.7703 C.3     1  CIP1        0.0175
     19  C13       28.5719  -53.5414   -5.2603 C.3     1  CIP1        0.0119
     20  C14       27.7137  -52.2625   -5.1521 C.3     1  CIP1        0.0087
     21  C15       25.8326  -53.9152   -5.1832 C.3     1  CIP1        0.0087
     22  C16       26.5242  -54.3885   -6.4787 C.3     1  CIP1        0.0119
     23  C17       31.4618  -57.1355  -11.8744 C.3     1  CIP1        0.1595
     24  F1        29.9117  -56.2993   -5.7435 F       1  CIP1       -0.2439
     25  H01       26.7553  -54.7948  -11.0877 H       1  CIP1        0.0281
     26  H02       27.3823  -53.2117  -11.5946 H       1  CIP1        0.0281
     27  H03       30.3520  -59.7190   -8.6770 H       1  CIP1        0.2098
     28  H04       27.8431  -54.1727  -13.7848 H       1  CIP1        0.0281
     29  H05       27.3829  -55.7928  -13.1946 H       1  CIP1        0.0281
     30  H06       32.7630  -58.2370  -10.9900 H       1  CIP1        0.2125
     31  H07       29.7135  -53.8203  -11.6635 H       1  CIP1        0.0463
     32  H08       26.1793  -52.4654   -3.7669 H       1  CIP1        0.1220
     33  H09       31.6600  -57.0650  -13.8480 H       1  CIP1        0.2125
     34  H10       29.0226  -57.1005  -12.9724 H       1  CIP1        0.0432
     35  H11       28.0786  -57.8872  -11.7231 H       1  CIP1        0.0432
     36  H12       30.2211  -58.8858  -11.8363 H       1  CIP1        0.0387
     37  H13       31.0358  -57.7953   -9.3290 H       1  CIP1        0.0601
     38  H14       27.9989  -57.8311   -9.4678 H       1  CIP1        0.0342
     39  H15       29.4889  -58.3021   -7.2754 H       1  CIP1        0.0297
     40  H16       27.9774  -57.4183   -7.2321 H       1  CIP1        0.0297
     41  H17       30.7038  -56.0873   -7.5210 H       1  CIP1        0.0667
     42  H18       29.6605  -54.0698   -7.5085 H       1  CIP1        0.0491
     43  H19       28.1642  -53.9410   -9.1954 H       1  CIP1        0.0296
     44  H20       27.1980  -55.3386   -8.7309 H       1  CIP1        0.0296
     45  H21       30.0284  -55.5815   -9.7433 H       1  CIP1        0.0467
     46  H22       29.6021  -53.2740   -5.5098 H       1  CIP1        0.0439
     47  H23       28.5808  -54.0460   -4.2899 H       1  CIP1        0.0439
     48  H24       28.1475  -51.5750   -4.4213 H       1  CIP1        0.0437
     49  H25       27.7118  -51.7678   -6.1276 H       1  CIP1        0.0437
     50  H26       24.7481  -53.8917   -5.3190 H       1  CIP1        0.0437
     51  H27       26.0625  -54.6315   -4.3890 H       1  CIP1        0.0437
     52  H28       26.1369  -55.3735   -6.7531 H       1  CIP1        0.0439
     53  H29       26.2921  -53.6780   -7.2773 H       1  CIP1        0.0439
     54  H30       31.2773  -56.0576  -11.9931 H       1  CIP1        0.0909
@<TRIPOS>BOND
     1    28     4    1
     2    33     9    1
     3    29     4    1
     4     9    23    1
     5     4     1    1
     6     4     7    1
     7    34    10    1
     8    54    23    1
     9    23    11    1
    10    23     6    1
    11    36    11    1
    12     1    26    1
    13     1     7    1
    14     1    25    1
    15    10    35    1
    16    10    11    1
    17    10     2    1
    18     7    31    1
    19     7     2    1
    20    11    12    1
    21     6    30    1
    22     2    18    1
    23    12     3    1
    24    12    37    1
    25    12    13    1
    26     3    27    1
    27    45    18    1
    28    18    13    1
    29    18    17    1
    30    38    13    1
    31    13    14    1
    32    43    17    1
    33    17    44    1
    34    17    16    1
    35    14    39    1
    36    14    40    1
    37    14    15    1
    38    41    15    1
    39    42    16    1
    40    53    22    1
    41    16    15    1
    42    16     5    1
    43    15    24    1
    44    52    22    1
    45    49    20    1
    46    22     5    1
    47    22    21    1
    48     5    19    1
    49    46    19    1
    50    50    21    1
    51    20    19    1
    52    20     8    1
    53    20    48    1
    54    19    47    1
    55    21     8    1
    56    21    51    1
    57     8    32    1
