REMARK  8 active torsions:
REMARK  status: ('A' for Active; 'I' for Inactive)
REMARK    1  A    between atoms: PA_1  and  O5'_5 
REMARK    2  A    between atoms: PA_1  and  O3A_24 
REMARK    3  A    between atoms: PB_2  and  N3B_23 
REMARK    4  A    between atoms: PB_2  and  O3A_24 
REMARK    5  A    between atoms: PG_3  and  N3B_23 
REMARK    6  A    between atoms: C5'_4  and  O5'_5 
REMARK    7  A    between atoms: C5'_4  and  C4'_6 
REMARK    8  A    between atoms: C1'_12  and  N9_32 
ROOT
HETATM    1  C4' GNP A 200       9.107  45.534  31.116  1.00 11.60     0.181 C 
HETATM    2  O4' GNP A 200      10.048  45.047  30.107  1.00 10.96    -0.331 OA
HETATM    3  C3' GNP A 200       9.490  44.824  32.424  1.00 12.08     0.216 C 
HETATM    4  O3' GNP A 200       8.750  43.579  32.488  1.00 14.40    -0.218 OA
HETATM    5  C2' GNP A 200      11.007  44.524  32.212  1.00 12.17     0.234 C 
HETATM    6  O2' GNP A 200      11.506  43.332  32.880  1.00 13.60    -0.216 OA
HETATM    7  C1' GNP A 200      11.057  44.190  30.706  1.00 11.60     0.241 C 
ENDROOT
BRANCH   1   8
HETATM    8  C5' GNP A 200       9.121  47.006  31.206  1.00 10.62     0.187 C 
BRANCH   8   9
HETATM    9  O5' GNP A 200      10.424  47.508  31.583  1.00  9.72    -0.268 OA
BRANCH   9  10
HETATM   10  PA  GNP A 200      10.592  48.902  32.188  1.00 10.32     0.418 P 
HETATM   11  O1A GNP A 200      12.072  49.296  32.187  1.00  9.87    -0.624 OA
HETATM   12  O2A GNP A 200       9.810  49.028  33.480  1.00 11.09    -0.624 OA
BRANCH  10  13
HETATM   13  O3A GNP A 200       9.782  49.858  31.057  1.00  9.21    -0.185 OA
BRANCH  13  14
HETATM   14  PB  GNP A 200       9.625  51.403  31.050  1.00  8.42     0.401 P 
HETATM   15  O1B GNP A 200       9.831  51.743  29.628  1.00  8.14    -0.628 OA
HETATM   16  O2B GNP A 200      10.486  52.008  32.011  1.00  8.71    -0.628 OA
BRANCH  14  17
HETATM   17  N3B GNP A 200       7.921  51.659  31.439  1.00  9.58    -0.091 NA
BRANCH  17  18
HETATM   18  PG  GNP A 200       7.319  53.068  31.951  1.00  9.51     0.404 P 
HETATM   19  O1G GNP A 200       7.332  54.068  30.768  1.00 10.72    -0.621 OA
HETATM   20  O2G GNP A 200       8.035  53.525  33.077  1.00 10.01    -0.621 OA
HETATM   21  O3G GNP A 200       5.859  52.693  32.325  1.00 11.72    -0.621 OA
ENDBRANCH  17  18
ENDBRANCH  14  17
ENDBRANCH  13  14
ENDBRANCH  10  13
ENDBRANCH   9  10
ENDBRANCH   8   9
ENDBRANCH   1   8
BRANCH   7  22
HETATM   22  N9  GNP A 200      12.351  44.439  29.977  1.00  9.54    -0.269 N 
HETATM   23  C4  GNP A 200      13.006  43.571  29.247  1.00  9.54     0.187 A 
HETATM   24  N3  GNP A 200      12.717  42.326  28.927  1.00 10.76    -0.039 NA
HETATM   25  C5  GNP A 200      14.163  44.314  28.911  1.00  8.26     0.162 A 
HETATM   26  C2  GNP A 200      13.490  41.684  28.208  1.00  9.86     0.772 A 
HETATM   27  N1  GNP A 200      14.754  42.288  27.712  1.00 10.22    -0.029 NA
HETATM   28  N2  GNP A 200      13.423  40.474  27.756  1.00 11.49     0.062 N 
HETATM   29  C6  GNP A 200      15.017  43.537  28.085  1.00 10.19     0.251 A 
HETATM   30  O6  GNP A 200      16.189  44.078  27.658  1.00 11.17    -0.167 OA
HETATM   31  N7  GNP A 200      14.108  45.499  29.420  1.00  8.86    -0.219 NA
HETATM   32  C8  GNP A 200      12.987  45.689  30.144  1.00 11.92     0.182 A 
ENDBRANCH   7  22
TORSDOF 8
