MODEL 1
REMARK VINA RESULT:    -6.409      0.000      0.000
REMARK INTER + INTRA:          -8.376
REMARK INTER:                  -8.094
REMARK INTRA:                  -0.282
REMARK UNBOUND:                -0.282
REMARK  6 active torsions:
REMARK  status: ('A' for Active; 'I' for Inactive)
REMARK    1  A    between atoms: C3_3  and  N1_4 
REMARK    2  A    between atoms: C5_6  and  C17_22 
REMARK    3  A    between atoms: C6_7  and  O1_8 
REMARK    4  A    between atoms: C10_12  and  N2_15 
REMARK    5  A    between atoms: C17_22  and  O2_23 
REMARK    6  A    between atoms: C17_22  and  O3_24 
ROOT
HETATM    1  N1  CIP     1      11.528 -24.414  -5.687  1.00  0.00     0.099 N 
HETATM    2  C4  CIP     1      12.644 -24.054  -4.766  1.00  0.00     0.285 C 
HETATM    3  C5  CIP     1      14.002 -23.697  -5.448  1.00  0.00     0.098 C 
HETATM    4  C6  CIP     1      13.841 -22.683  -6.629  1.00  0.00     0.135 C 
HETATM    5  C7  CIP     1      12.358 -22.454  -6.994  1.00  0.00     0.051 C 
HETATM    6  C8  CIP     1      12.170 -21.622  -8.291  1.00  0.00     0.049 C 
HETATM    7  C9  CIP     1      11.745 -22.470  -9.497  1.00  0.00     0.204 C 
HETATM    8  C10 CIP     1      10.433 -23.295  -9.237  1.00  0.00     0.258 C 
HETATM    9  C11 CIP     1      10.278 -23.638  -7.718  1.00  0.00     0.075 C 
HETATM   10  C12 CIP     1      11.652 -23.831  -7.049  1.00  0.00     0.232 C 
HETATM   11  F1  CIP     1      11.630 -21.631 -10.592  1.00  0.00    -0.247 F 
ENDROOT
BRANCH   8  12
HETATM   12  N2  CIP     1       9.241 -22.611  -9.833  1.00  0.00     0.099 N 
HETATM   13  C13 CIP     1       8.317 -23.582 -10.490  1.00  0.00     0.302 C 
HETATM   14  C14 CIP     1       7.006 -23.784  -9.715  1.00  0.00     0.299 C 
HETATM   15  N3  CIP     1       6.260 -22.524  -9.573  1.00  0.00     0.086 N 
HETATM   16  C15 CIP     1       7.126 -21.340  -9.436  1.00  0.00     0.299 C 
HETATM   17  H13 CIP     1       5.657 -22.601  -8.720  1.00  0.00     0.315 HD
HETATM   18  C16 CIP     1       8.523 -21.696  -8.907  1.00  0.00     0.302 C 
ENDBRANCH   8  12
BRANCH   1  19
HETATM   19  C3  CIP     1      11.339 -25.878  -5.743  1.00  0.00     0.223 A 
HETATM   20  C1  CIP     1       9.877 -26.307  -5.744  1.00  0.00     0.038 A 
HETATM   21  C2  CIP     1      10.710 -26.480  -4.491  1.00  0.00     0.038 A 
ENDBRANCH   1  19
BRANCH   4  22
HETATM   22  O1  CIP     1      14.469 -21.460  -6.326  1.00  0.00    -0.395 OA
HETATM   23  H4  CIP     1      14.347 -20.859  -7.108  1.00  0.00     0.210 HD
ENDBRANCH   4  22
BRANCH   3  24
HETATM   24  C17 CIP     1      14.865 -24.926  -5.840  1.00  0.00     0.262 C 
BRANCH  24  25
HETATM   25  O2  CIP     1      16.125 -24.526  -6.323  1.00  0.00    -0.371 OA
HETATM   26  H12 CIP     1      16.141 -24.689  -7.301  1.00  0.00     0.212 HD
ENDBRANCH  24  25
BRANCH  24  27
HETATM   27  O3  CIP     1      15.000 -25.827  -4.773  1.00  0.00    -0.371 OA
HETATM   28  H18 CIP     1      14.463 -25.459  -4.024  1.00  0.00     0.212 HD
ENDBRANCH  24  27
ENDBRANCH   3  24
TORSDOF 6
ENDMDL
