MODEL 1
REMARK VINA RESULT:    -6.369      0.000      0.000
REMARK INTER + INTRA:          -8.657
REMARK INTER:                  -8.045
REMARK INTRA:                  -0.612
REMARK UNBOUND:                -0.612
REMARK  6 active torsions:
REMARK  status: ('A' for Active; 'I' for Inactive)
REMARK    1  A    between atoms: C2_2  and  N1_3 
REMARK    2  A    between atoms: C4_5  and  C16_21 
REMARK    3  A    between atoms: C5_6  and  O1_7 
REMARK    4  A    between atoms: C9_11  and  N2_14 
REMARK    5  A    between atoms: C16_21  and  O2_22 
REMARK    6  A    between atoms: C16_21  and  O3_23 
ROOT
HETATM    1  N1  NOR     1      10.264 -28.894  -2.850  1.00  0.00     0.093 N 
HETATM    2  C3  NOR     1      10.354 -28.346  -1.469  1.00  0.00     0.284 C 
HETATM    3  C4  NOR     1       9.526 -29.118  -0.401  1.00  0.00     0.098 C 
HETATM    4  C5  NOR     1       9.731 -30.669  -0.456  1.00  0.00     0.135 C 
HETATM    5  C6  NOR     1      10.562 -31.091  -1.683  1.00  0.00     0.051 C 
HETATM    6  C7  NOR     1      10.634 -32.637  -1.859  1.00  0.00     0.049 C 
HETATM    7  C8  NOR     1       9.863 -33.160  -3.085  1.00  0.00     0.204 C 
HETATM    8  C9  NOR     1      10.207 -32.410  -4.408  1.00  0.00     0.258 C 
HETATM    9  C10 NOR     1      10.692 -30.950  -4.179  1.00  0.00     0.075 C 
HETATM   10  C11 NOR     1      10.018 -30.356  -2.931  1.00  0.00     0.231 C 
HETATM   11  F1  NOR     1      10.060 -34.525  -3.218  1.00  0.00    -0.247 F 
ENDROOT
BRANCH   8  12
HETATM   12  N2  NOR     1      11.081 -33.210  -5.313  1.00  0.00     0.099 N 
HETATM   13  C12 NOR     1      10.961 -32.786  -6.722  1.00  0.00     0.302 C 
HETATM   14  C13 NOR     1      11.700 -33.780  -7.628  1.00  0.00     0.299 C 
HETATM   15  N3  NOR     1      13.111 -33.902  -7.240  1.00  0.00     0.086 N 
HETATM   16  C14 NOR     1      13.233 -34.286  -5.828  1.00  0.00     0.299 C 
HETATM   17  H13 NOR     1      13.580 -32.976  -7.380  1.00  0.00     0.315 HD
HETATM   18  C15 NOR     1      12.503 -33.289  -4.919  1.00  0.00     0.302 C 
ENDBRANCH   8  12
BRANCH   1  19
HETATM   19  C2  NOR     1       9.357 -28.103  -3.713  1.00  0.00     0.268 C 
HETATM   20  C1  NOR     1       9.366 -26.646  -3.268  1.00  0.00     0.037 C 
ENDBRANCH   1  19
BRANCH   4  21
HETATM   21  O1  NOR     1      10.382 -31.108   0.709  1.00  0.00    -0.395 OA
HETATM   22  H4  NOR     1      10.657 -32.049   0.546  1.00  0.00     0.210 HD
ENDBRANCH   4  21
BRANCH   3  23
HETATM   23  C16 NOR     1       8.030 -28.711  -0.398  1.00  0.00     0.262 C 
BRANCH  23  24
HETATM   24  O2  NOR     1       7.737 -27.972   0.760  1.00  0.00    -0.371 OA
HETATM   25  H12 NOR     1       7.521 -27.049   0.466  1.00  0.00     0.212 HD
ENDBRANCH  23  24
BRANCH  23  26
HETATM   26  O3  NOR     1       7.209 -29.847  -0.432  1.00  0.00    -0.371 OA
HETATM   27  H18 NOR     1       7.083 -30.131   0.511  1.00  0.00     0.212 HD
ENDBRANCH  23  26
ENDBRANCH   3  23
TORSDOF 6
ENDMDL
