MODEL 1
REMARK VINA RESULT:    -6.949      0.000      0.000
REMARK INTER + INTRA:         -10.387
REMARK INTER:                  -9.792
REMARK INTRA:                  -0.595
REMARK UNBOUND:                -0.595
REMARK  9 active torsions:
REMARK  status: ('A' for Active; 'I' for Inactive)
REMARK    1  A    between atoms: C3_3  and  C15_20 
REMARK    2  A    between atoms: C5_7  and  N2_10 
REMARK    3  A    between atoms: C6_8  and  O1_9 
REMARK    4  A    between atoms: N2_10  and  C7_11 
REMARK    5  A    between atoms: C7_11  and  O2_12 
REMARK    6  A    between atoms: C7_11  and  C8_13 
REMARK    7  A    between atoms: C8_13  and  C9_14 
REMARK    8  A    between atoms: C15_20  and  O3_21 
REMARK    9  A    between atoms: C15_20  and  O4_22 
ROOT
HETATM    1  C1  PEN     1      -7.880 -53.267  -9.181  1.00  0.00     0.029 C 
HETATM    2  C2  PEN     1      -7.396 -52.566  -7.891  1.00  0.00     0.039 C 
HETATM    3  C3  PEN     1      -7.953 -51.112  -7.640  1.00  0.00     0.299 C 
HETATM    4  N1  PEN     1      -6.861 -50.153  -7.362  1.00  0.00     0.146 N 
HETATM    5  C4  PEN     1      -5.529 -50.714  -7.590  1.00  0.00     0.326 A 
HETATM    6  S1  PEN     1      -5.584 -52.485  -7.997  1.00  0.00    -0.119 SA
HETATM    7  C5  PEN     1      -5.051 -50.375  -6.173  1.00  0.00     0.325 A 
HETATM    8  C6  PEN     1      -6.487 -49.886  -5.955  1.00  0.00     0.395 A 
HETATM    9  C16 PEN     1      -7.764 -53.486  -6.710  1.00  0.00     0.029 C 
ENDROOT
BRANCH   7  10
HETATM   10  N2  PEN     1      -4.616 -51.534  -5.365  1.00  0.00     0.124 N 
HETATM   11  H7  PEN     1      -5.435 -52.079  -5.019  1.00  0.00     0.320 HD
BRANCH  10  12
HETATM   12  C7  PEN     1      -3.781 -51.114  -4.225  1.00  0.00     0.354 C 
BRANCH  12  13
HETATM   13  O2  PEN     1      -2.697 -51.997  -4.081  1.00  0.00    -0.368 OA
HETATM   14  H4  PEN     1      -3.033 -52.782  -3.573  1.00  0.00     0.212 HD
ENDBRANCH  12  13
BRANCH  12  15
HETATM   15  C8  PEN     1      -3.236 -49.698  -4.485  1.00  0.00     0.068 C 
BRANCH  15  16
HETATM   16  C9  PEN     1      -3.675 -48.668  -3.419  1.00  0.00    -0.010 C 
HETATM   17  C10 PEN     1      -5.006 -49.100  -2.774  1.00  0.00     0.005 C 
HETATM   18  C11 PEN     1      -5.543 -48.032  -1.799  1.00  0.00     0.000 C 
HETATM   19  C12 PEN     1      -4.433 -47.202  -1.124  1.00  0.00     0.000 C 
HETATM   20  C13 PEN     1      -3.142 -48.010  -0.969  1.00  0.00     0.000 C 
HETATM   21  C14 PEN     1      -2.582 -48.456  -2.335  1.00  0.00     0.005 C 
ENDBRANCH  15  16
ENDBRANCH  12  15
ENDBRANCH  10  12
ENDBRANCH   7  10
BRANCH   8  22
HETATM   22  O1  PEN     1      -7.213 -50.646  -5.022  1.00  0.00    -0.366 OA
HETATM   23  H2  PEN     1      -6.540 -51.102  -4.453  1.00  0.00     0.212 HD
ENDBRANCH   8  22
BRANCH   3  24
HETATM   24  C15 PEN     1      -8.812 -50.481  -8.761  1.00  0.00     0.289 C 
BRANCH  24  25
HETATM   25  O3  PEN     1     -10.085 -50.137  -8.279  1.00  0.00    -0.369 OA
HETATM   26  H12 PEN     1     -10.745 -50.534  -8.903  1.00  0.00     0.212 HD
ENDBRANCH  24  25
BRANCH  24  27
HETATM   27  O4  PEN     1      -8.172 -49.360  -9.311  1.00  0.00    -0.369 OA
HETATM   28  H15 PEN     1      -8.607 -49.181 -10.185  1.00  0.00     0.212 HD
ENDBRANCH  24  27
ENDBRANCH   3  24
TORSDOF 9
ENDMDL
