MODEL 1
REMARK VINA RESULT:    -6.680      0.000      0.000
REMARK INTER + INTRA:         -15.734
REMARK INTER:                 -11.757
REMARK INTRA:                  -3.977
REMARK UNBOUND:                -3.977
REMARK  17 active torsions:
REMARK  status: ('A' for Active; 'I' for Inactive)
REMARK    1  A    between atoms: C3_3  and  C21_38 
REMARK    2  A    between atoms: C3_3  and  O12_40 
REMARK    3  A    between atoms: C4_4  and  O6_25 
REMARK    4  A    between atoms: C5_5  and  O2_7 
REMARK    5  A    between atoms: O2_7  and  C6_8 
REMARK    6  A    between atoms: C7_9  and  N4_21 
REMARK    7  A    between atoms: C8_10  and  O5_20 
REMARK    8  A    between atoms: C9_11  and  N1_16 
REMARK    9  A    between atoms: C10_12  and  O4_15 
REMARK   10  A    between atoms: C11_13  and  O3_14 
REMARK       I    between atoms: N1_16  and  C12_17 
REMARK       I    between atoms: C12_17  and  N2_18 
REMARK       I    between atoms: C12_17  and  N3_19 
REMARK       I    between atoms: N4_21  and  C13_22 
REMARK       I    between atoms: C13_22  and  N5_23 
REMARK       I    between atoms: C13_22  and  N6_24 
REMARK   11  A    between atoms: O6_25  and  C14_26 
REMARK   12  A    between atoms: C15_27  and  N7_36 
REMARK   13  A    between atoms: C16_28  and  O10_35 
REMARK   14  A    between atoms: C17_29  and  O9_34 
REMARK   15  A    between atoms: C18_30  and  C19_32 
REMARK   16  A    between atoms: C19_32  and  O8_33 
REMARK   17  A    between atoms: C21_38  and  O11_39 
ROOT
HETATM    1  C6  STM     1       7.759 -46.012 -12.950  1.00  0.00     0.192 C 
HETATM    2  C7  STM     1       8.056 -44.537 -13.335  1.00  0.00     0.287 C 
HETATM    3  C8  STM     1       7.624 -43.557 -12.209  1.00  0.00     0.190 C 
HETATM    4  C9  STM     1       8.299 -43.946 -10.861  1.00  0.00     0.287 C 
HETATM    5  C10 STM     1       8.036 -45.426 -10.484  1.00  0.00     0.185 C 
HETATM    6  C11 STM     1       8.481 -46.367 -11.625  1.00  0.00     0.180 C 
ENDROOT
BRANCH   1   7
HETATM    7  O2  STM     1       8.223 -46.846 -14.004  1.00  0.00    -0.348 OA
BRANCH   7   8
HETATM    8  C5  STM     1       9.635 -46.797 -14.172  1.00  0.00     0.293 C 
HETATM    9  C4  STM     1      10.204 -48.216 -14.141  1.00  0.00     0.218 C 
HETATM   10  C3  STM     1      10.218 -48.630 -15.618  1.00  0.00     0.135 C 
HETATM   11  C2  STM     1       9.978 -47.282 -16.362  1.00  0.00     0.160 C 
HETATM   12  C1  STM     1      11.038 -46.933 -17.412  1.00  0.00     0.043 C 
HETATM   13  O1  STM     1       9.931 -46.235 -15.424  1.00  0.00    -0.350 OA
BRANCH   9  14
HETATM   14  O6  STM     1      11.527 -48.192 -13.618  1.00  0.00    -0.346 OA
BRANCH  14  15
HETATM   15  C14 STM     1      11.548 -47.944 -12.213  1.00  0.00     0.297 C 
HETATM   16  C15 STM     1      11.453 -49.289 -11.431  1.00  0.00     0.305 C 
HETATM   17  C16 STM     1      11.858 -49.122  -9.938  1.00  0.00     0.187 C 
HETATM   18  C17 STM     1      11.885 -47.629  -9.535  1.00  0.00     0.180 C 
HETATM   19  C18 STM     1      12.756 -46.796 -10.535  1.00  0.00     0.179 C 
HETATM   20  O7  STM     1      12.751 -47.280 -11.883  1.00  0.00    -0.349 OA
BRANCH  16  21
HETATM   21  N7  STM     1      12.199 -50.410 -12.063  1.00  0.00     0.091 N 
HETATM   22  C20 STM     1      13.515 -50.700 -11.466  1.00  0.00     0.307 C 
HETATM   23  H34 STM     1      12.346 -50.192 -13.073  1.00  0.00     0.316 HD
ENDBRANCH  16  21
BRANCH  17  24
HETATM   24  O10 STM     1      10.944 -49.822  -9.130  1.00  0.00    -0.391 OA
HETATM   25  H33 STM     1      10.412 -50.404  -9.731  1.00  0.00     0.210 HD
ENDBRANCH  17  24
BRANCH  18  26
HETATM   26  O9  STM     1      12.348 -47.460  -8.218  1.00  0.00    -0.390 OA
HETATM   27  H32 STM     1      11.827 -48.058  -7.628  1.00  0.00     0.210 HD
ENDBRANCH  18  26
BRANCH  19  28
HETATM   28  C19 STM     1      12.362 -45.308 -10.513  1.00  0.00     0.198 C 
BRANCH  28  29
HETATM   29  O8  STM     1      11.462 -45.057  -9.467  1.00  0.00    -0.398 OA
HETATM   30  H31 STM     1      11.570 -44.102  -9.207  1.00  0.00     0.209 HD
ENDBRANCH  28  29
ENDBRANCH  19  28
ENDBRANCH  14  15
ENDBRANCH   9  14
BRANCH  10  31
HETATM   31  C21 STM     1       9.093 -49.655 -15.928  1.00  0.00     0.207 C 
BRANCH  31  32
HETATM   32  O11 STM     1       7.909 -49.012 -16.316  1.00  0.00    -0.398 OA
HETATM   33  H6  STM     1       7.797 -49.209 -17.286  1.00  0.00     0.209 HD
ENDBRANCH  31  32
ENDBRANCH  10  31
BRANCH  10  34
HETATM   34  O12 STM     1      11.469 -49.212 -15.931  1.00  0.00    -0.382 OA
HETATM   35  H39 STM     1      11.955 -49.381 -15.087  1.00  0.00     0.210 HD
ENDBRANCH  10  34
ENDBRANCH   7   8
ENDBRANCH   1   7
BRANCH   2  36
HETATM   36  N4  STM     1       7.522 -44.182 -14.675  1.00  0.00     0.156 N 
HETATM   37  C13 STM     1       6.082 -44.404 -14.900  1.00  0.00     0.674 C 
HETATM   38  N5  STM     1       5.829 -44.465 -16.344  1.00  0.00     0.142 N 
HETATM   39  N6  STM     1       5.292 -43.321 -14.297  1.00  0.00     0.142 N 
HETATM   40  H20 STM     1       4.847 -44.804 -16.496  1.00  0.00     0.318 HD
HETATM   41  H21 STM     1       6.461 -45.186 -16.764  1.00  0.00     0.318 HD
HETATM   42  H22 STM     1       4.435 -43.742 -13.849  1.00  0.00     0.318 HD
HETATM   43  H23 STM     1       4.952 -42.650 -15.032  1.00  0.00     0.318 HD
HETATM   44  H3  STM     1       7.754 -43.184 -14.892  1.00  0.00     0.321 HD
ENDBRANCH   2  36
BRANCH   6  45
HETATM   45  O3  STM     1       8.179 -47.690 -11.264  1.00  0.00    -0.390 OA
HETATM   46  H13 STM     1       8.669 -47.874 -10.423  1.00  0.00     0.210 HD
ENDBRANCH   6  45
BRANCH   3  47
HETATM   47  O5  STM     1       7.954 -42.233 -12.557  1.00  0.00    -0.391 OA
HETATM   48  H19 STM     1       7.378 -41.621 -12.026  1.00  0.00     0.210 HD
ENDBRANCH   3  47
BRANCH   5  49
HETATM   49  O4  STM     1       8.749 -45.766  -9.321  1.00  0.00    -0.391 OA
HETATM   50  H14 STM     1       8.111 -46.226  -8.708  1.00  0.00     0.210 HD
ENDBRANCH   5  49
BRANCH   4  51
HETATM   51  N1  STM     1       7.995 -43.036  -9.727  1.00  0.00     0.156 N 
HETATM   52  C12 STM     1       9.089 -42.298  -9.057  1.00  0.00     0.674 C 
HETATM   53  N2  STM     1       9.990 -41.668 -10.022  1.00  0.00     0.142 N 
HETATM   54  N3  STM     1       9.843 -43.167  -8.155  1.00  0.00     0.142 N 
HETATM   55  H15 STM     1      10.746 -41.166  -9.494  1.00  0.00     0.318 HD
HETATM   56  H16 STM     1       9.461 -40.915 -10.524  1.00  0.00     0.318 HD
HETATM   57  H17 STM     1      10.532 -42.583  -7.636  1.00  0.00     0.318 HD
HETATM   58  H18 STM     1       9.184 -43.530  -7.428  1.00  0.00     0.318 HD
HETATM   59  H1  STM     1       7.434 -43.549  -9.009  1.00  0.00     0.321 HD
ENDBRANCH   4  51
TORSDOF 17
ENDMDL
