MODEL 1
REMARK VINA RESULT:    -9.755      0.000      0.000
REMARK INTER + INTRA:         -14.750
REMARK INTER:                 -13.462
REMARK INTRA:                  -1.288
REMARK UNBOUND:                -1.288
REMARK  7 active torsions:
REMARK  status: ('A' for Active; 'I' for Inactive)
REMARK    1  A    between atoms: S_2  and  N_15 
REMARK    2  A    between atoms: O_4  and  C_23 
REMARK    3  A    between atoms: N_12  and  CA_19 
REMARK       I    between atoms: N_12  and  C_24 
REMARK    4  A    between atoms: N_13  and  CA_25 
REMARK       I    between atoms: N_13  and  C_27 
REMARK       I    between atoms: N_14  and  C_27 
REMARK    5  A    between atoms: CA_18  and  C_23 
REMARK    6  A    between atoms: C_24  and  CA_25 
REMARK    7  A    between atoms: CA_25  and  C_26 
ROOT
HETATM    1  CA  MEZ     1      13.578  19.353 -16.501  1.00  0.00     0.211 C 
ENDROOT
BRANCH   1   2
HETATM    2  N   MEZ     1      12.826  20.065 -17.508  1.00  0.00    -0.325 N 
HETATM    3  C   MEZ     1      11.542  19.690 -17.885  1.00  0.00     0.327 C 
HETATM    4  O   MEZ     1      10.947  18.727 -17.394  1.00  0.00    -0.247 OA
HETATM    5  N   MEZ     1      10.979  20.509 -18.891  1.00  0.00    -0.249 N 
HETATM    6  C   MEZ     1       9.672  20.178 -19.458  1.00  0.00     0.159 C 
HETATM    7  C   MEZ     1      11.518  21.635 -19.553  1.00  0.00     0.342 C 
HETATM    8  C   MEZ     1       9.242  21.377 -20.300  1.00  0.00     0.167 C 
HETATM    9  N   MEZ     1      10.530  22.078 -20.488  1.00  0.00    -0.225 N 
HETATM   10  O   MEZ     1      12.602  22.172 -19.380  1.00  0.00    -0.245 OA
HETATM   11  H   MEZ     1      13.250  20.880 -17.940  1.00  0.00     0.165 HD
BRANCH   9  12
HETATM   12  S   MEZ     1      10.560  23.531 -21.350  1.00  0.00     0.232 S 
HETATM   13  O   MEZ     1      10.206  24.630 -20.468  1.00  0.00    -0.206 OA
HETATM   14  O   MEZ     1      11.764  23.591 -22.163  1.00  0.00    -0.206 OA
HETATM   15  C   MEZ     1       9.188  23.264 -22.449  1.00  0.00     0.186 C 
ENDBRANCH   9  12
ENDBRANCH   1   2
BRANCH   1  16
HETATM   16  C   MEZ     1      13.916  17.972 -17.048  1.00  0.00     0.245 C 
HETATM   17  O   MEZ     1      14.511  17.797 -18.112  1.00  0.00    -0.271 OA
HETATM   18  N   MEZ     1      13.522  16.939 -16.196  1.00  0.00    -0.344 N 
HETATM   19  H   MEZ     1      13.043  17.193 -15.335  1.00  0.00     0.163 HD
BRANCH  18  20
HETATM   20  CA  MEZ     1      13.777  15.530 -16.484  1.00  0.00     0.199 A 
HETATM   21  C   MEZ     1      15.116  14.932 -16.026  1.00  0.00     0.160 A 
HETATM   22  S   MEZ     1      16.115  15.937 -14.869  1.00  0.00    -0.135 SA
HETATM   23  N   MEZ     1      14.348  14.057 -15.135  1.00  0.00    -0.219 NA
HETATM   24  C   MEZ     1      16.196  14.529 -13.653  1.00  0.00     0.029 C 
HETATM   25  CA  MEZ     1      14.806  13.864 -13.774  1.00  0.00     0.182 C 
HETATM   26  C   MEZ     1      16.423  15.095 -12.250  1.00  0.00     0.029 C 
HETATM   27  C   MEZ     1      17.370  13.626 -14.052  1.00  0.00     0.029 C 
HETATM   28  C   MEZ     1      13.125  14.547 -15.491  1.00  0.00     0.227 A 
HETATM   29  O   MEZ     1      12.009  14.355 -15.068  1.00  0.00    -0.277 OA
BRANCH  25  30
HETATM   30  C   MEZ     1      14.775  12.395 -13.501  1.00  0.00     0.160 C 
HETATM   31  OXT MEZ     1      14.760  11.886 -12.389  1.00  0.00    -0.649 OA
BRANCH  30  32
HETATM   32  O   MEZ     1      14.766  11.692 -14.661  1.00  0.00    -0.775 OA
HETATM   33  H   MEZ     1      14.249  10.863 -14.582  1.00  0.00     0.167 HD
ENDBRANCH  30  32
ENDBRANCH  25  30
ENDBRANCH  18  20
ENDBRANCH   1  16
BRANCH   1  34
HETATM   34  C   MEZ     1      14.817  20.109 -16.082  1.00  0.00    -0.026 A 
HETATM   35  C   MEZ     1      15.438  20.981 -16.977  1.00  0.00     0.010 A 
HETATM   36  C   MEZ     1      16.581  21.679 -16.590  1.00  0.00     0.001 A 
HETATM   37  C   MEZ     1      17.105  21.505 -15.310  1.00  0.00     0.000 A 
HETATM   38  C   MEZ     1      16.485  20.633 -14.416  1.00  0.00     0.001 A 
HETATM   39  C   MEZ     1      15.341  19.935 -14.802  1.00  0.00     0.010 A 
ENDBRANCH   1  34
TORSDOF 7
ENDMDL
