@<TRIPOS>MOLECULE
lfx.pdb
   46    49     1     0     0
SMALL
bcc


@<TRIPOS>ATOM
      1 C1           2.4500    -1.9980     2.1320 c3         1 LFX      -0.117100
      2 C2           2.6050    -2.0130     0.6090 c6         1 LFX       0.190500
      3 C3           1.3570    -2.5550    -0.0920 c6         1 LFX       0.115400
      4 O1           0.2160    -1.7290     0.1450 os         1 LFX      -0.301900
      5 C4           0.4470    -0.4060    -0.1960 ca         1 LFX       0.069100
      6 C5           1.7600     0.1200    -0.2240 ca         1 LFX       0.118600
      7 N1           2.8920    -0.6560     0.1170 na         1 LFX      -0.507800
      8 C6           4.1500    -0.0840     0.1040 cc         1 LFX       0.196000
      9 C7           4.4440     1.1790    -0.2500 cd         1 LFX      -0.334400
     10 C8           3.3010     2.0390    -0.6580 c          1 LFX       0.600900
     11 O2           3.4450     3.1960    -1.0380 o          1 LFX      -0.520100
     12 C9           1.9330     1.4590    -0.6040 ca         1 LFX      -0.160600
     13 C10          0.8350     2.2580    -0.9250 ca         1 LFX      -0.095000
     14 C11         -0.4480     1.7230    -0.8650 ca         1 LFX       0.072900
     15 C12         -0.6910     0.3840    -0.5040 ca         1 LFX       0.138600
     16 N2          -1.9830    -0.1820    -0.4280 nh         1 LFX      -0.643000
     17 C13         -3.0340     0.3080    -1.3470 c6         1 LFX       0.178800
     18 C14         -4.1190     1.1240    -0.6080 c6         1 LFX       0.152800
     19 N3          -4.7960     0.4050     0.4970 n3         1 LFX      -0.736600
     20 C15         -3.9400    -0.6770     1.0370 c6         1 LFX       0.152800
     21 C16         -2.4300    -0.3550     0.9770 c6         1 LFX       0.178800
     22 C17         -6.0930    -0.1250     0.0870 c3         1 LFX       0.158100
     23 F1          -1.4670     2.5540    -1.1410 f          1 LFX      -0.134900
     24 C18          5.8320     1.6790    -0.2140 c          1 LFX       0.667300
     25 O3           6.2120     2.8240    -0.3780 o          1 LFX      -0.517000
     26 O4           6.7420     0.7140     0.0360 oh         1 LFX      -0.645100
     27 H1           3.3720    -1.6520     2.6120 hc         1 LFX       0.057033
     28 H2           1.6430    -1.3330     2.4580 hc         1 LFX       0.057033
     29 H3           2.2330    -3.0040     2.5070 hc         1 LFX       0.057033
     30 H4           3.4450    -2.6740     0.3550 h1         1 LFX       0.072700
     31 H5           1.5150    -2.6440    -1.1750 h1         1 LFX       0.075200
     32 H6           1.1200    -3.5580     0.2810 h1         1 LFX       0.075200
     33 H7           4.9280    -0.7730     0.4260 h4         1 LFX       0.180000
     34 H8           0.9640     3.2990    -1.2090 ha         1 LFX       0.183000
     35 H9          -3.5070    -0.5730    -1.8000 h1         1 LFX       0.055950
     36 H10         -2.6260     0.8770    -2.1900 h1         1 LFX       0.055950
     37 H11         -3.6510     2.0120    -0.1660 h1         1 LFX       0.049200
     38 H12         -4.8480     1.5060    -1.3340 h1         1 LFX       0.049200
     39 H13         -4.2270    -0.8610     2.0780 h1         1 LFX       0.049200
     40 H14         -4.1060    -1.6120     0.4840 h1         1 LFX       0.049200
     41 H15         -2.2330     0.5550     1.5610 h1         1 LFX       0.055950
     42 H16         -1.8830    -1.1790     1.4500 h1         1 LFX       0.055950
     43 H17         -6.5820    -0.6360     0.9250 h1         1 LFX       0.032367
     44 H18         -6.7610     0.6880    -0.2160 h1         1 LFX       0.032367
     45 H19         -6.0080    -0.8310    -0.7470 h1         1 LFX       0.032367
     46 H20          7.5900     1.2090     0.0180 ho         1 LFX       0.446000
@<TRIPOS>BOND
     1    36    17 1   
     2    35    17 1   
     3    17    18 1   
     4    17    16 1   
     5    38    18 1   
     6    34    13 1   
     7    31     3 1   
     8    23    14 1   
     9    11    10 2   
    10    13    14 ar  
    11    13    12 ar  
    12    14    15 ar  
    13    45    22 1   
    14    10    12 1   
    15    10     9 1   
    16    18    37 1   
    17    18    19 1   
    18    12     6 ar  
    19    15    16 1   
    20    15     5 ar  
    21    16    21 1   
    22    25    24 2   
    23     9    24 1   
    24     9     8 2   
    25     6     5 ar  
    26     6     7 1   
    27    44    22 1   
    28    24    26 1   
    29     5     4 1   
    30     3     4 1   
    31     3    32 1   
    32     3     2 1   
    33    46    26 1   
    34    22    19 1   
    35    22    43 1   
    36     8     7 1   
    37     8    33 1   
    38     7     2 1   
    39    30     2 1   
    40    40    20 1   
    41    19    20 1   
    42     2     1 1   
    43    21    20 1   
    44    21    42 1   
    45    21    41 1   
    46    20    39 1   
    47     1    28 1   
    48     1    29 1   
    49     1    27 1   
@<TRIPOS>SUBSTRUCTURE
     1 LFX         1 TEMP              0 ****  ****    0 ROOT
