@<TRIPOS>MOLECULE
*****
 41 42 0 0 0
SMALL
GASTEIGER

@<TRIPOS>ATOM
      1  C1        26.7793  -55.0153   -6.1870 C.3     1  NDX1       -0.0523
      2  N1        29.0364  -55.7403   -7.1217 N.3     1  NDX1       -0.2866
      3  O1        30.9521  -59.0105   -8.9411 O.3     1  NDX1       -0.3909
      4  C2        28.2653  -54.6685   -6.4265 C.3     1  NDX1       -0.0025
      5  N2        28.3764  -54.8610   -9.2997 N.3     1  NDX1       -0.2983
      6  O2        29.0771  -59.9302   -6.0139 O.3     1  NDX1       -0.3668
      7  C3        29.2089  -56.9435   -6.2725 C.3     1  NDX1        0.0101
      8  O3        31.4028  -60.0405   -6.1957 O.3     1  NDX1       -0.3668
      9  C4        30.2414  -57.9358   -6.8592 C.3     1  NDX1        0.0488
     10  C5        29.8707  -58.3009   -8.3251 C.3     1  NDX1        0.0693
     11  C6        29.5635  -57.0488   -9.1877 C.3     1  NDX1        0.0144
     12  C7        28.5603  -56.0949   -8.4872 C.3     1  NDX1        0.0666
     13  C8        28.3454  -55.0419  -10.7738 C.3     1  NDX1        0.0062
     14  C9        27.9778  -56.4907  -11.1584 C.3     1  NDX1       -0.0373
     15  C10       29.0164  -57.4806  -10.5815 C.3     1  NDX1       -0.0438
     16  C11       27.3624  -54.0341  -11.3995 C.3     1  NDX1       -0.0496
     17  C12       30.2931  -59.1777   -5.9210 C.3     1  NDX1        0.1595
     18  H01       26.2582  -55.1965   -7.1292 H       1  NDX1        0.0242
     19  H02       26.6752  -55.8978   -5.5527 H       1  NDX1        0.0242
     20  H03       26.2832  -54.1822   -5.6845 H       1  NDX1        0.0242
     21  H04       30.7210  -59.1350   -9.8790 H       1  NDX1        0.2098
     22  H05       28.7361  -54.4657   -5.4605 H       1  NDX1        0.0424
     23  H06       28.3200  -53.7437   -7.0069 H       1  NDX1        0.0424
     24  H07       27.5397  -54.3759   -8.9822 H       1  NDX1        0.1237
     25  H08       29.1070  -60.6740   -5.3880 H       1  NDX1        0.2125
     26  H09       28.2453  -57.4492   -6.1646 H       1  NDX1        0.0432
     27  H10       29.5492  -56.6385   -5.2788 H       1  NDX1        0.0432
     28  H11       31.8700  -59.7400   -7.0020 H       1  NDX1        0.2125
     29  H12       31.2196  -57.4469   -6.8534 H       1  NDX1        0.0387
     30  H13       28.9813  -58.9368   -8.3163 H       1  NDX1        0.0602
     31  H14       30.4950  -56.4939   -9.3366 H       1  NDX1        0.0354
     32  H15       27.5849  -56.5981   -8.3997 H       1  NDX1        0.0634
     33  H16       29.3464  -54.8361  -11.1638 H       1  NDX1        0.0458
     34  H17       27.9340  -56.6002  -12.2448 H       1  NDX1        0.0280
     35  H18       26.9848  -56.7320  -10.7685 H       1  NDX1        0.0280
     36  H19       28.5459  -58.4655  -10.5251 H       1  NDX1        0.0270
     37  H20       29.8567  -57.5705  -11.2744 H       1  NDX1        0.0270
     38  H21       26.3468  -54.2039  -11.0335 H       1  NDX1        0.0245
     39  H22       27.6527  -53.0111  -11.1491 H       1  NDX1        0.0245
     40  H23       27.3568  -54.1290  -12.4878 H       1  NDX1        0.0245
     41  H24       30.3999  -58.8559   -4.8737 H       1  NDX1        0.0909
@<TRIPOS>BOND
     1    40    16    1
     2    34    14    1
     3    39    16    1
     4    16    13    1
     5    16    38    1
     6    33    13    1
     7    37    15    1
     8    14    13    1
     9    14    35    1
    10    14    15    1
    11    13     5    1
    12    15    36    1
    13    15    11    1
    14    21     3    1
    15     5    24    1
    16     5    12    1
    17    31    11    1
    18    11    12    1
    19    11    10    1
    20     3    10    1
    21    12    32    1
    22    12     2    1
    23    10    30    1
    24    10     9    1
    25    23     4    1
    26     2     4    1
    27     2     7    1
    28    29     9    1
    29    28     8    1
    30     9     7    1
    31     9    17    1
    32     4    22    1
    33     4     1    1
    34     7    26    1
    35     7    27    1
    36     6    17    1
    37     6    25    1
    38     8    17    1
    39    17    41    1
    40    18     1    1
    41     1    19    1
    42     1    20    1
