@<TRIPOS>MOLECULE
*****
 54 57 0 0 0
SMALL
GASTEIGER

@<TRIPOS>ATOM
      1  C1        27.4877  -54.3366  -11.4903 C.3     1  CIP1       -0.0359
      2  N1        28.4720  -55.9226  -11.1032 N.3     1  CIP1       -0.2955
      3  O1        30.0206  -59.5243   -9.4059 O.3     1  CIP1       -0.3910
      4  C2        27.7833  -54.9241  -12.8125 C.3     1  CIP1       -0.0359
      5  N2        27.8414  -54.5840   -6.1303 N.3     1  CIP1       -0.2942
      6  O2        32.5357  -57.2807  -11.0000 O.3     1  CIP1       -0.3668
      7  C3        28.9624  -54.6895  -11.8511 C.3     1  CIP1        0.0108
      8  N3        26.2086  -52.5802   -4.6750 N.3     1  CIP1       -0.3136
      9  O3        31.7113  -57.6817  -13.0934 O.3     1  CIP1       -0.3668
     10  C4        28.8271  -57.2611  -11.7389 C.3     1  CIP1        0.0093
     11  C5        30.1422  -57.9217  -11.2443 C.3     1  CIP1        0.0487
     12  C6        30.1185  -58.1244   -9.6944 C.3     1  CIP1        0.0681
     13  C7        28.9328  -57.3822   -9.0345 C.3     1  CIP1        0.0038
     14  C8        29.0392  -57.4034   -7.4818 C.3     1  CIP1       -0.0136
     15  C9        29.6813  -56.1100   -6.9523 C.3     1  CIP1        0.1168
     16  C10       28.7741  -54.8831   -7.2701 C.3     1  CIP1        0.0430
     17  C11       28.0821  -55.0351   -8.6648 C.3     1  CIP1       -0.0186
     18  C12       28.8989  -55.9404   -9.6337 C.3     1  CIP1        0.0175
     19  C13       28.4133  -53.7002   -5.0701 C.3     1  CIP1        0.0119
     20  C14       27.6429  -52.3636   -4.9964 C.3     1  CIP1        0.0087
     21  C15       25.6648  -53.8862   -5.1262 C.3     1  CIP1        0.0087
     22  C16       26.3859  -54.3815   -6.3971 C.3     1  CIP1        0.0119
     23  C17       31.3723  -57.1481  -11.8101 C.3     1  CIP1        0.1595
     24  F1        29.9403  -56.2356   -5.6361 F       1  CIP1       -0.2439
     25  H01       26.6622  -54.8481  -10.9617 H       1  CIP1        0.0281
     26  H02       27.2891  -53.2681  -11.4803 H       1  CIP1        0.0281
     27  H03       30.7130  -59.7510   -8.7590 H       1  CIP1        0.2098
     28  H04       27.7461  -54.2494  -13.6631 H       1  CIP1        0.0281
     29  H05       27.2855  -55.8633  -13.0555 H       1  CIP1        0.0281
     30  H06       32.7400  -58.2290  -10.9490 H       1  CIP1        0.2125
     31  H07       29.6206  -53.8767  -11.5504 H       1  CIP1        0.0463
     32  H08       26.0447  -52.4809   -3.6751 H       1  CIP1        0.1220
     33  H09       31.6110  -56.9970  -13.7760 H       1  CIP1        0.2125
     34  H10       28.8982  -57.1795  -12.8264 H       1  CIP1        0.0432
     35  H11       28.0096  -57.9577  -11.5333 H       1  CIP1        0.0432
     36  H12       30.1661  -58.9169  -11.6990 H       1  CIP1        0.0387
     37  H13       31.0380  -57.7496   -9.2415 H       1  CIP1        0.0601
     38  H14       28.0011  -57.8977   -9.2854 H       1  CIP1        0.0342
     39  H15       29.6052  -58.2720   -7.1374 H       1  CIP1        0.0297
     40  H16       28.0372  -57.4966   -7.0543 H       1  CIP1        0.0297
     41  H17       30.6508  -55.9758   -7.4401 H       1  CIP1        0.0667
     42  H18       29.4483  -54.0278   -7.3726 H       1  CIP1        0.0491
     43  H19       27.9615  -54.0260   -9.0590 H       1  CIP1        0.0296
     44  H20       27.0897  -55.4808   -8.5833 H       1  CIP1        0.0296
     45  H21       29.9261  -55.5620   -9.6118 H       1  CIP1        0.0467
     46  H22       29.4736  -53.5058   -5.2540 H       1  CIP1        0.0439
     47  H23       28.3300  -54.2070   -4.1045 H       1  CIP1        0.0439
     48  H24       28.0899  -51.7070   -4.2455 H       1  CIP1        0.0437
     49  H25       27.7156  -51.8699   -5.9697 H       1  CIP1        0.0437
     50  H26       24.5912  -53.7930   -5.3097 H       1  CIP1        0.0437
     51  H27       25.8140  -54.6261   -4.3342 H       1  CIP1        0.0437
     52  H28       25.9364  -55.3260   -6.7154 H       1  CIP1        0.0439
     53  H29       26.2485  -53.6367   -7.1861 H       1  CIP1        0.0439
     54  H30       31.1684  -56.0725  -11.9150 H       1  CIP1        0.0909
@<TRIPOS>BOND
     1    28     4    1
     2    33     9    1
     3    29     4    1
     4     9    23    1
     5     4     1    1
     6     4     7    1
     7    34    10    1
     8    54    23    1
     9    23    11    1
    10    23     6    1
    11    36    11    1
    12    10    35    1
    13    10    11    1
    14    10     2    1
    15     1     7    1
    16     1    26    1
    17     1    25    1
    18     7    31    1
    19     7     2    1
    20    11    12    1
    21     6    30    1
    22     2    18    1
    23    12     3    1
    24    12    37    1
    25    12    13    1
    26     3    27    1
    27    45    18    1
    28    18    13    1
    29    18    17    1
    30    38    13    1
    31    13    14    1
    32    43    17    1
    33    17    44    1
    34    17    16    1
    35    14    39    1
    36    14    40    1
    37    14    15    1
    38    41    15    1
    39    42    16    1
    40    53    22    1
    41    16    15    1
    42    16     5    1
    43    15    24    1
    44    52    22    1
    45    49    20    1
    46    22     5    1
    47    22    21    1
    48     5    19    1
    49    46    19    1
    50    50    21    1
    51    20    19    1
    52    20     8    1
    53    20    48    1
    54    21     8    1
    55    21    51    1
    56    19    47    1
    57     8    32    1
