MODEL 1
REMARK VINA RESULT:    -6.448      0.000      0.000
REMARK INTER + INTRA:          -8.395
REMARK INTER:                  -8.145
REMARK INTRA:                  -0.251
REMARK UNBOUND:                -0.251
REMARK  6 active torsions:
REMARK  status: ('A' for Active; 'I' for Inactive)
REMARK    1  A    between atoms: C3_3  and  N1_4 
REMARK    2  A    between atoms: C5_6  and  C17_22 
REMARK    3  A    between atoms: C6_7  and  O1_8 
REMARK    4  A    between atoms: C10_12  and  N2_15 
REMARK    5  A    between atoms: C17_22  and  O2_23 
REMARK    6  A    between atoms: C17_22  and  O3_24 
ROOT
HETATM    1  N1  CIP     1     -29.707  -0.785   4.241  1.00  0.00     0.099 N 
HETATM    2  C4  CIP     1     -31.003  -0.248   4.749  1.00  0.00     0.285 C 
HETATM    3  C5  CIP     1     -31.029   0.158   6.256  1.00  0.00     0.098 C 
HETATM    4  C6  CIP     1     -29.804   1.041   6.669  1.00  0.00     0.135 C 
HETATM    5  C7  CIP     1     -28.740   1.109   5.552  1.00  0.00     0.051 C 
HETATM    6  C8  CIP     1     -27.424   1.799   6.003  1.00  0.00     0.049 C 
HETATM    7  C9  CIP     1     -26.277   0.810   6.251  1.00  0.00     0.204 C 
HETATM    8  C10 CIP     1     -25.966  -0.095   5.005  1.00  0.00     0.258 C 
HETATM    9  C11 CIP     1     -27.247  -0.308   4.133  1.00  0.00     0.075 C 
HETATM   10  C12 CIP     1     -28.517  -0.322   5.003  1.00  0.00     0.232 C 
HETATM   11  F1  CIP     1     -25.172   1.531   6.666  1.00  0.00    -0.247 F 
ENDROOT
BRANCH   8  12
HETATM   12  N2  CIP     1     -24.787   0.427   4.242  1.00  0.00     0.099 N 
HETATM   13  C13 CIP     1     -23.658  -0.550   4.231  1.00  0.00     0.302 C 
HETATM   14  C14 CIP     1     -23.441  -1.203   2.858  1.00  0.00     0.299 C 
HETATM   15  N3  CIP     1     -23.141  -0.202   1.823  1.00  0.00     0.086 N 
HETATM   16  C15 CIP     1     -23.837   1.081   2.025  1.00  0.00     0.299 C 
HETATM   17  H13 CIP     1     -23.431  -0.599   0.897  1.00  0.00     0.315 HD
HETATM   18  C16 CIP     1     -25.104   0.930   2.880  1.00  0.00     0.302 C 
ENDBRANCH   8  12
BRANCH   1  19
HETATM   19  C3  CIP     1     -29.746  -2.259   4.147  1.00  0.00     0.223 A 
HETATM   20  C1  CIP     1     -29.070  -2.809   2.897  1.00  0.00     0.038 A 
HETATM   21  C2  CIP     1     -30.582  -2.793   2.989  1.00  0.00     0.038 A 
ENDBRANCH   1  19
BRANCH   4  22
HETATM   22  O1  CIP     1     -30.222   2.336   7.031  1.00  0.00    -0.395 OA
HETATM   23  H4  CIP     1     -29.663   2.983   6.525  1.00  0.00     0.210 HD
ENDBRANCH   4  22
BRANCH   3  24
HETATM   24  C17 CIP     1     -31.258  -1.024   7.235  1.00  0.00     0.262 C 
BRANCH  24  25
HETATM   25  O2  CIP     1     -31.860  -0.584   8.428  1.00  0.00    -0.371 OA
HETATM   26  H12 CIP     1     -32.405   0.216   8.216  1.00  0.00     0.212 HD
ENDBRANCH  24  25
BRANCH  24  27
HETATM   27  O3  CIP     1     -32.011  -2.050   6.642  1.00  0.00    -0.371 OA
HETATM   28  H18 CIP     1     -32.672  -1.607   6.048  1.00  0.00     0.212 HD
ENDBRANCH  24  27
ENDBRANCH   3  24
TORSDOF 6
ENDMDL
