MODEL 1
REMARK VINA RESULT:      -6.4      0.000      0.000
REMARK  3 active torsions:
REMARK  status: ('A' for Active; 'I' for Inactive)
REMARK    1  A    between atoms: C2_2  and  N1_3 
REMARK    2  A    between atoms: C4_5  and  C12_15 
REMARK    3  A    between atoms: C12_15  and  O3_17 
ROOT
HETATM    1  N1  NDX     1     -28.877  -3.732  47.892  1.00  0.00    -0.340 N 
HETATM    2  C3  NDX     1     -29.450  -4.682  47.067  1.00  0.00     0.115 A 
HETATM    3  C4  NDX     1     -30.749  -4.757  46.738  1.00  0.00     0.104 A 
HETATM    4  C5  NDX     1     -31.643  -3.711  47.288  1.00  0.00     0.204 A 
HETATM    5  O1  NDX     1     -32.823  -3.607  46.966  1.00  0.00    -0.286 OA
HETATM    6  C6  NDX     1     -31.061  -2.738  48.242  1.00  0.00     0.061 A 
HETATM    7  C7  NDX     1     -29.691  -2.765  48.525  1.00  0.00     0.144 A 
HETATM    8  N2  NDX     1     -29.143  -1.878  49.394  1.00  0.00    -0.235 NA
HETATM    9  C8  NDX     1     -29.943  -0.957  49.987  1.00  0.00     0.033 A 
HETATM   10  C9  NDX     1     -31.308  -0.878  49.742  1.00  0.00     0.028 A 
HETATM   11  C10 NDX     1     -31.875  -1.784  48.855  1.00  0.00     0.021 A 
HETATM   12  C11 NDX     1     -29.294   0.003  50.939  1.00  0.00     0.070 C 
ENDROOT
BRANCH   3  13
HETATM   13  C12 NDX     1     -31.168  -5.860  45.865  1.00  0.00     0.181 C 
HETATM   14  O2  NDX     1     -30.616  -6.945  45.776  1.00  0.00    -0.646 OA
BRANCH  13  15
HETATM   15  O3  NDX     1     -32.295  -5.608  45.183  1.00  0.00    -0.773 OA
HETATM   16  H12 NDX     1     -33.001  -6.064  45.681  1.00  0.00     0.167 HD
ENDBRANCH  13  15
ENDBRANCH   3  13
BRANCH   1  17
HETATM   17  C2  NDX     1     -27.455  -3.731  48.252  1.00  0.00     0.125 C 
HETATM   18  C1  NDX     1     -27.041  -5.066  48.856  1.00  0.00     0.027 C 
ENDBRANCH   1  17
TORSDOF 3
ENDMDL
