MODEL 1
REMARK VINA RESULT:      -6.1      0.000      0.000
REMARK  3 active torsions:
REMARK  status: ('A' for Active; 'I' for Inactive)
REMARK    1  A    between atoms: C2_2  and  N1_3 
REMARK    2  A    between atoms: C4_5  and  C12_15 
REMARK    3  A    between atoms: C12_15  and  O3_17 
ROOT
HETATM    1  N1  NDX     1     -31.542  -3.026  48.075  1.00  0.00    -0.340 N 
HETATM    2  C3  NDX     1     -32.425  -3.255  47.035  1.00  0.00     0.115 A 
HETATM    3  C4  NDX     1     -32.261  -4.149  46.048  1.00  0.00     0.104 A 
HETATM    4  C5  NDX     1     -31.036  -4.982  46.091  1.00  0.00     0.204 A 
HETATM    5  O1  NDX     1     -30.833  -5.908  45.312  1.00  0.00    -0.286 OA
HETATM    6  C6  NDX     1     -30.040  -4.689  47.148  1.00  0.00     0.061 A 
HETATM    7  C7  NDX     1     -30.311  -3.719  48.120  1.00  0.00     0.144 A 
HETATM    8  N2  NDX     1     -29.410  -3.443  49.096  1.00  0.00    -0.235 NA
HETATM    9  C8  NDX     1     -28.236  -4.123  49.122  1.00  0.00     0.033 A 
HETATM   10  C9  NDX     1     -27.913  -5.098  48.187  1.00  0.00     0.028 A 
HETATM   11  C10 NDX     1     -28.830  -5.385  47.185  1.00  0.00     0.021 A 
HETATM   12  C11 NDX     1     -27.272  -3.784  50.219  1.00  0.00     0.070 C 
ENDROOT
BRANCH   3  13
HETATM   13  C12 NDX     1     -33.304  -4.224  45.017  1.00  0.00     0.181 C 
HETATM   14  O2  NDX     1     -34.497  -4.386  45.224  1.00  0.00    -0.646 OA
BRANCH  13  15
HETATM   15  O3  NDX     1     -32.845  -4.030  43.772  1.00  0.00    -0.773 OA
HETATM   16  H12 NDX     1     -32.979  -3.078  43.598  1.00  0.00     0.167 HD
ENDBRANCH  13  15
ENDBRANCH   3  13
BRANCH   1  17
HETATM   17  C2  NDX     1     -31.756  -2.001  49.102  1.00  0.00     0.125 C 
HETATM   18  C1  NDX     1     -33.109  -1.323  48.926  1.00  0.00     0.027 C 
ENDBRANCH   1  17
TORSDOF 3
ENDMDL
