MODEL 1
REMARK VINA RESULT:      -2.0      0.000      0.000
REMARK  3 active torsions:
REMARK  status: ('A' for Active; 'I' for Inactive)
REMARK    1  A    between atoms: C2_2  and  N1_3 
REMARK    2  A    between atoms: C4_5  and  C12_15 
REMARK    3  A    between atoms: C12_15  and  O3_17 
ROOT
HETATM    1  N1  NDX     1     -47.726  -1.018  16.632  1.00  0.00    -0.340 N 
HETATM    2  C3  NDX     1     -46.537  -0.314  16.585  1.00  0.00     0.115 A 
HETATM    3  C4  NDX     1     -46.306   0.878  17.157  1.00  0.00     0.104 A 
HETATM    4  C5  NDX     1     -47.419   1.480  17.928  1.00  0.00     0.204 A 
HETATM    5  O1  NDX     1     -47.293   2.507  18.589  1.00  0.00    -0.286 OA
HETATM    6  C6  NDX     1     -48.725   0.780  17.915  1.00  0.00     0.061 A 
HETATM    7  C7  NDX     1     -48.854  -0.455  17.269  1.00  0.00     0.144 A 
HETATM    8  N2  NDX     1     -50.043  -1.109  17.252  1.00  0.00    -0.235 NA
HETATM    9  C8  NDX     1     -51.112  -0.551  17.873  1.00  0.00     0.033 A 
HETATM   10  C9  NDX     1     -51.044   0.669  18.533  1.00  0.00     0.028 A 
HETATM   11  C10 NDX     1     -49.831   1.345  18.554  1.00  0.00     0.021 A 
HETATM   12  C11 NDX     1     -52.404  -1.310  17.828  1.00  0.00     0.070 C 
ENDROOT
BRANCH   3  13
HETATM   13  C12 NDX     1     -44.979   1.478  16.971  1.00  0.00     0.181 C 
HETATM   14  O2  NDX     1     -43.937   0.863  16.814  1.00  0.00    -0.646 OA
BRANCH  13  15
HETATM   15  O3  NDX     1     -44.998   2.818  16.919  1.00  0.00    -0.773 OA
HETATM   16  H12 NDX     1     -44.393   3.053  16.188  1.00  0.00     0.167 HD
ENDBRANCH  13  15
ENDBRANCH   3  13
BRANCH   1  17
HETATM   17  C2  NDX     1     -47.930  -2.299  15.946  1.00  0.00     0.125 C 
HETATM   18  C1  NDX     1     -46.620  -2.834  15.383  1.00  0.00     0.027 C 
ENDBRANCH   1  17
TORSDOF 3
ENDMDL
