MODEL 1
REMARK VINA RESULT:      -6.4      0.000      0.000
REMARK  3 active torsions:
REMARK  status: ('A' for Active; 'I' for Inactive)
REMARK    1  A    between atoms: C2_2  and  N1_3 
REMARK    2  A    between atoms: C4_5  and  C12_15 
REMARK    3  A    between atoms: C12_15  and  O3_17 
ROOT
HETATM    1  N1  NDX     1     -28.701  -3.719  47.964  1.00  0.00    -0.340 N 
HETATM    2  C3  NDX     1     -29.304  -4.677  47.170  1.00  0.00     0.115 A 
HETATM    3  C4  NDX     1     -30.610  -4.737  46.866  1.00  0.00     0.104 A 
HETATM    4  C5  NDX     1     -31.477  -3.667  47.412  1.00  0.00     0.204 A 
HETATM    5  O1  NDX     1     -32.661  -3.550  47.111  1.00  0.00    -0.286 OA
HETATM    6  C6  NDX     1     -30.861  -2.684  48.335  1.00  0.00     0.061 A 
HETATM    7  C7  NDX     1     -29.487  -2.727  48.593  1.00  0.00     0.144 A 
HETATM    8  N2  NDX     1     -28.909  -1.832  49.433  1.00  0.00    -0.235 NA
HETATM    9  C8  NDX     1     -29.683  -0.887  50.023  1.00  0.00     0.033 A 
HETATM   10  C9  NDX     1     -31.050  -0.792  49.803  1.00  0.00     0.028 A 
HETATM   11  C10 NDX     1     -31.649  -1.705  48.945  1.00  0.00     0.021 A 
HETATM   12  C11 NDX     1     -29.000   0.081  50.943  1.00  0.00     0.070 C 
ENDROOT
BRANCH   3  13
HETATM   13  C12 NDX     1     -31.063  -5.851  46.024  1.00  0.00     0.181 C 
HETATM   14  O2  NDX     1     -30.495  -6.924  45.899  1.00  0.00    -0.646 OA
BRANCH  13  15
HETATM   15  O3  NDX     1     -32.238  -5.624  45.419  1.00  0.00    -0.773 OA
HETATM   16  H12 NDX     1     -32.074  -5.801  44.471  1.00  0.00     0.167 HD
ENDBRANCH  13  15
ENDBRANCH   3  13
BRANCH   1  17
HETATM   17  C2  NDX     1     -27.272  -3.733  48.297  1.00  0.00     0.125 C 
HETATM   18  C1  NDX     1     -26.882  -5.034  48.985  1.00  0.00     0.027 C 
ENDBRANCH   1  17
TORSDOF 3
ENDMDL
