MODEL 1
REMARK VINA RESULT:      -4.0      0.000      0.000
REMARK  3 active torsions:
REMARK  status: ('A' for Active; 'I' for Inactive)
REMARK    1  A    between atoms: C2_2  and  N1_3 
REMARK    2  A    between atoms: C4_5  and  C12_15 
REMARK    3  A    between atoms: C12_15  and  O3_17 
ROOT
HETATM    1  N1  NDX     1     -45.771  -6.361  12.555  1.00  0.00    -0.340 N 
HETATM    2  C3  NDX     1     -46.549  -5.726  13.506  1.00  0.00     0.115 A 
HETATM    3  C4  NDX     1     -46.573  -6.008  14.818  1.00  0.00     0.104 A 
HETATM    4  C5  NDX     1     -45.665  -7.080  15.292  1.00  0.00     0.204 A 
HETATM    5  O1  NDX     1     -45.514  -7.348  16.479  1.00  0.00    -0.286 OA
HETATM    6  C6  NDX     1     -44.891  -7.828  14.273  1.00  0.00     0.061 A 
HETATM    7  C7  NDX     1     -44.957  -7.455  12.926  1.00  0.00     0.144 A 
HETATM    8  N2  NDX     1     -44.250  -8.128  11.983  1.00  0.00    -0.235 NA
HETATM    9  C8  NDX     1     -43.472  -9.173  12.363  1.00  0.00     0.033 A 
HETATM   10  C9  NDX     1     -43.364  -9.586  13.684  1.00  0.00     0.028 A 
HETATM   11  C10 NDX     1     -44.085  -8.903  14.654  1.00  0.00     0.021 A 
HETATM   12  C11 NDX     1     -42.710  -9.886  11.287  1.00  0.00     0.070 C 
ENDROOT
BRANCH   3  13
HETATM   13  C12 NDX     1     -47.489  -5.235  15.664  1.00  0.00     0.181 C 
HETATM   14  O2  NDX     1     -48.386  -5.699  16.350  1.00  0.00    -0.646 OA
BRANCH  13  15
HETATM   15  O3  NDX     1     -47.221  -3.921  15.685  1.00  0.00    -0.773 OA
HETATM   16  H12 NDX     1     -46.622  -3.796  16.448  1.00  0.00     0.167 HD
ENDBRANCH  13  15
ENDBRANCH   3  13
BRANCH   1  17
HETATM   17  C2  NDX     1     -45.823  -6.036  11.125  1.00  0.00     0.125 C 
HETATM   18  C1  NDX     1     -47.250  -6.107  10.599  1.00  0.00     0.027 C 
ENDBRANCH   1  17
TORSDOF 3
ENDMDL
