MODEL 1
REMARK VINA RESULT:    -8.735      0.000      0.000
REMARK INTER + INTRA:         -13.383
REMARK INTER:                 -12.054
REMARK INTRA:                  -1.329
REMARK UNBOUND:                -1.329
REMARK  7 active torsions:
REMARK  status: ('A' for Active; 'I' for Inactive)
REMARK    1  A    between atoms: S_2  and  N_15 
REMARK    2  A    between atoms: O_4  and  C_23 
REMARK    3  A    between atoms: N_12  and  CA_19 
REMARK       I    between atoms: N_12  and  C_24 
REMARK    4  A    between atoms: N_13  and  CA_25 
REMARK       I    between atoms: N_13  and  C_27 
REMARK       I    between atoms: N_14  and  C_27 
REMARK    5  A    between atoms: CA_18  and  C_23 
REMARK    6  A    between atoms: C_24  and  CA_25 
REMARK    7  A    between atoms: CA_25  and  C_26 
ROOT
HETATM    1  CA  MEZ     1      17.019  16.933 -13.542  1.00  0.00     0.211 C 
ENDROOT
BRANCH   1   2
HETATM    2  N   MEZ     1      16.020  17.445 -14.450  1.00  0.00    -0.325 N 
HETATM    3  C   MEZ     1      15.975  18.780 -14.834  1.00  0.00     0.327 C 
HETATM    4  O   MEZ     1      16.778  19.626 -14.434  1.00  0.00    -0.247 OA
HETATM    5  N   MEZ     1      14.917  19.083 -15.723  1.00  0.00    -0.249 N 
HETATM    6  C   MEZ     1      14.685  20.467 -16.138  1.00  0.00     0.159 C 
HETATM    7  C   MEZ     1      13.922  18.244 -16.272  1.00  0.00     0.342 C 
HETATM    8  C   MEZ     1      13.670  20.419 -17.277  1.00  0.00     0.167 C 
HETATM    9  N   MEZ     1      13.096  19.067 -17.101  1.00  0.00    -0.225 N 
HETATM   10  O   MEZ     1      13.769  17.043 -16.112  1.00  0.00    -0.245 OA
HETATM   11  H   MEZ     1      15.339  16.797 -14.833  1.00  0.00     0.165 HD
BRANCH   9  12
HETATM   12  S   MEZ     1      11.921  18.522 -18.184  1.00  0.00     0.232 S 
HETATM   13  O   MEZ     1      12.524  18.302 -19.488  1.00  0.00    -0.206 OA
HETATM   14  O   MEZ     1      11.119  17.486 -17.554  1.00  0.00    -0.206 OA
HETATM   15  C   MEZ     1      10.911  19.981 -18.302  1.00  0.00     0.186 C 
ENDBRANCH   9  12
ENDBRANCH   1   2
BRANCH   1  16
HETATM   16  C   MEZ     1      16.440  16.960 -12.133  1.00  0.00     0.245 C 
HETATM   17  O   MEZ     1      15.981  15.963 -11.576  1.00  0.00    -0.271 OA
HETATM   18  N   MEZ     1      16.529  18.217 -11.533  1.00  0.00    -0.344 N 
HETATM   19  H   MEZ     1      16.935  18.974 -12.079  1.00  0.00     0.163 HD
BRANCH  18  20
HETATM   20  CA  MEZ     1      16.081  18.481 -10.168  1.00  0.00     0.199 A 
HETATM   21  C   MEZ     1      17.134  18.476  -9.050  1.00  0.00     0.160 A 
HETATM   22  S   MEZ     1      18.888  18.482  -9.570  1.00  0.00    -0.135 SA
HETATM   23  N   MEZ     1      16.837  19.897  -8.850  1.00  0.00    -0.219 NA
HETATM   24  C   MEZ     1      19.230  19.993  -8.537  1.00  0.00     0.029 C 
HETATM   25  CA  MEZ     1      17.935  20.826  -8.671  1.00  0.00     0.182 C 
HETATM   26  C   MEZ     1      20.432  20.735  -9.122  1.00  0.00     0.029 C 
HETATM   27  C   MEZ     1      19.543  19.529  -7.108  1.00  0.00     0.029 C 
HETATM   28  C   MEZ     1      15.895  19.974  -9.834  1.00  0.00     0.227 A 
HETATM   29  O   MEZ     1      15.282  20.900 -10.314  1.00  0.00    -0.277 OA
BRANCH  25  30
HETATM   30  C   MEZ     1      17.601  21.683  -7.492  1.00  0.00     0.160 C 
HETATM   31  OXT MEZ     1      18.153  22.736  -7.210  1.00  0.00    -0.649 OA
BRANCH  30  32
HETATM   32  O   MEZ     1      16.595  21.131  -6.769  1.00  0.00    -0.775 OA
HETATM   33  H   MEZ     1      16.920  20.433  -6.162  1.00  0.00     0.167 HD
ENDBRANCH  30  32
ENDBRANCH  25  30
ENDBRANCH  18  20
ENDBRANCH   1  16
BRANCH   1  34
HETATM   34  C   MEZ     1      17.480  15.548 -13.932  1.00  0.00    -0.026 A 
HETATM   35  C   MEZ     1      18.718  15.076 -13.496  1.00  0.00     0.010 A 
HETATM   36  C   MEZ     1      19.143  13.798 -13.856  1.00  0.00     0.001 A 
HETATM   37  C   MEZ     1      18.332  12.992 -14.654  1.00  0.00     0.000 A 
HETATM   38  C   MEZ     1      17.095  13.464 -15.091  1.00  0.00     0.001 A 
HETATM   39  C   MEZ     1      16.669  14.743 -14.730  1.00  0.00     0.010 A 
ENDBRANCH   1  34
TORSDOF 7
ENDMDL
