@<TRIPOS>MOLECULE
*****
 29 32 0 0 0
SMALL
GASTEIGER

@<TRIPOS>ATOM
      1  C1       -28.1622   -8.4728   -6.8396 C.3     1  LEV1        0.0200
      2  N1       -28.6573   -6.0462   -7.0277 N.3     1  LEV1       -0.2705
      3  O1       -27.4534   -6.9577   -9.5135 O.3     1  LEV1       -0.3520
      4  C2       -27.5788   -7.0649   -7.0342 C.3     1  LEV1        0.0874
      5  N2       -28.6777   -6.2384  -12.0301 N.3     1  LEV1       -0.2672
      6  O2       -31.3383   -2.7979   -6.9813 O.3     1  LEV1       -0.3842
      7  C3       -26.6717   -7.0038   -8.2874 C.3     1  LEV1        0.1580
      8  N3       -29.2939   -7.4768  -14.5869 N.3     1  LEV1       -0.2691
      9  O3       -31.0240   -3.3652   -3.7976 O.3     1  LEV1       -0.3602
     10  C4       -28.6900   -6.1861   -9.5020 C.3     1  LEV1        0.1470
     11  O4       -29.2556   -2.1290   -4.6129 O.3     1  LEV1       -0.3602
     12  C5       -28.7391   -5.2508   -8.2731 C.3     1  LEV1        0.0886
     13  C6       -28.5690   -5.1700   -5.8457 C.3     1  LEV1        0.0796
     14  C7       -29.8192   -4.2748   -5.7283 C.3     1  LEV1        0.0988
     15  C8       -30.0671   -3.4580   -7.0281 C.3     1  LEV1        0.1181
     16  C9       -30.0009   -4.3610   -8.2815 C.3     1  LEV1        0.0470
     17  C10      -30.0621   -3.5385   -9.5851 C.3     1  LEV1        0.0406
     18  C11      -30.0644   -4.4593  -10.8212 C.3     1  LEV1        0.1780
     19  C12      -28.8218   -5.3892  -10.8207 C.3     1  LEV1        0.1191
     20  C13      -29.6612   -7.3425  -12.1131 C.3     1  LEV1        0.0898
     21  C14      -29.3712   -8.2506  -13.3278 C.3     1  LEV1        0.0897
     22  C15      -28.3300   -6.3576  -14.4944 C.3     1  LEV1        0.0897
     23  C16      -28.6148   -5.4486  -13.2781 C.3     1  LEV1        0.0898
     24  C17      -30.6213   -7.0279  -15.0410 C.3     1  LEV1        0.0897
     25  C18      -29.7476   -3.4498   -4.4198 C.3     1  LEV1        0.2320
     26  F1       -31.2140   -5.1609  -10.8488 F       1  LEV1       -0.2358
     27  H6       -31.8930   -3.1240   -7.7130 H       1  LEV1        0.2103
     28  H12      -31.2820   -4.2640   -3.5350 H       1  LEV1        0.2129
     29  H20      -30.0100   -1.5360   -4.4360 H       1  LEV1        0.2129
@<TRIPOS>BOND
     1    24     8    1
     2     8    22    1
     3     8    21    1
     4    22    23    1
     5    23     5    1
     6    21    20    1
     7    20     5    1
     8     5    19    1
     9    26    18    1
    10    18    19    1
    11    18    17    1
    12    19    10    1
    13    17    16    1
    14     3    10    1
    15     3     7    1
    16    10    12    1
    17     7     4    1
    18    16    12    1
    19    16    15    1
    20    12     2    1
    21    27     6    1
    22     4     2    1
    23     4     1    1
    24     2    13    1
    25    15     6    1
    26    15    14    1
    27    13    14    1
    28    14    25    1
    29    11    25    1
    30    11    29    1
    31    25     9    1
    32     9    28    1
