MODEL 1
REMARK VINA RESULT:    -8.028      0.000      0.000
REMARK INTER + INTRA:         -10.354
REMARK INTER:                 -10.140
REMARK INTRA:                  -0.215
REMARK UNBOUND:                -0.215
REMARK  6 active torsions:
REMARK  status: ('A' for Active; 'I' for Inactive)
REMARK    1  A    between atoms: C3_3  and  N1_4 
REMARK    2  A    between atoms: C5_6  and  C17_22 
REMARK    3  A    between atoms: C6_7  and  O1_8 
REMARK    4  A    between atoms: C10_12  and  N2_15 
REMARK    5  A    between atoms: C17_22  and  O2_23 
REMARK    6  A    between atoms: C17_22  and  O3_24 
ROOT
HETATM    1  N1  CIP     1      16.771  15.305 -14.093  1.00  0.00     0.099 N 
HETATM    2  C4  CIP     1      17.054  14.032 -14.816  1.00  0.00     0.285 C 
HETATM    3  C5  CIP     1      15.804  13.222 -15.284  1.00  0.00     0.098 C 
HETATM    4  C6  CIP     1      14.743  14.110 -16.016  1.00  0.00     0.135 C 
HETATM    5  C7  CIP     1      15.071  15.615 -15.897  1.00  0.00     0.051 C 
HETATM    6  C8  CIP     1      13.934  16.530 -16.427  1.00  0.00     0.049 C 
HETATM    7  C9  CIP     1      13.127  17.200 -15.307  1.00  0.00     0.204 C 
HETATM    8  C10 CIP     1      14.019  18.032 -14.318  1.00  0.00     0.258 C 
HETATM    9  C11 CIP     1      15.466  17.443 -14.238  1.00  0.00     0.075 C 
HETATM   10  C12 CIP     1      15.456  15.915 -14.428  1.00  0.00     0.232 C 
HETATM   11  F1  CIP     1      12.136  17.968 -15.894  1.00  0.00    -0.247 F 
ENDROOT
BRANCH   8  12
HETATM   12  N2  CIP     1      13.971  19.492 -14.649  1.00  0.00     0.099 N 
HETATM   13  C13 CIP     1      14.168  20.342 -13.437  1.00  0.00     0.302 C 
HETATM   14  C14 CIP     1      15.532  21.050 -13.413  1.00  0.00     0.299 C 
HETATM   15  N3  CIP     1      15.703  21.933 -14.577  1.00  0.00     0.086 N 
HETATM   16  C15 CIP     1      15.057  21.426 -15.802  1.00  0.00     0.299 C 
HETATM   17  H13 CIP     1      16.731  22.034 -14.757  1.00  0.00     0.315 HD
HETATM   18  C16 CIP     1      14.858  19.904 -15.769  1.00  0.00     0.302 C 
ENDBRANCH   8  12
BRANCH   1  19
HETATM   19  C3  CIP     1      16.929  15.132 -12.635  1.00  0.00     0.223 A 
HETATM   20  C1  CIP     1      17.763  16.224 -11.976  1.00  0.00     0.038 A 
HETATM   21  C2  CIP     1      18.358  14.847 -12.186  1.00  0.00     0.038 A 
ENDBRANCH   1  19
BRANCH   4  22
HETATM   22  O1  CIP     1      14.626  13.737 -17.369  1.00  0.00    -0.395 OA
HETATM   23  H4  CIP     1      14.030  14.397 -17.811  1.00  0.00     0.210 HD
ENDBRANCH   4  22
BRANCH   3  24
HETATM   24  C17 CIP     1      15.168  12.331 -14.184  1.00  0.00     0.262 C 
BRANCH  24  25
HETATM   25  O2  CIP     1      14.111  13.000 -13.540  1.00  0.00    -0.371 OA
HETATM   26  H12 CIP     1      13.722  13.645 -14.184  1.00  0.00     0.212 HD
ENDBRANCH  24  25
BRANCH  24  27
HETATM   27  O3  CIP     1      14.741  11.097 -14.700  1.00  0.00    -0.371 OA
HETATM   28  H18 CIP     1      14.756  10.455 -13.944  1.00  0.00     0.212 HD
ENDBRANCH  24  27
ENDBRANCH   3  24
TORSDOF 6
ENDMDL
