MODEL 1
REMARK VINA RESULT:    -8.067      0.000      0.000
REMARK INTER + INTRA:         -10.263
REMARK INTER:                  -9.718
REMARK INTRA:                  -0.545
REMARK UNBOUND:                -0.545
REMARK  5 active torsions:
REMARK  status: ('A' for Active; 'I' for Inactive)
REMARK    1  A    between atoms: C7_9  and  C18_24 
REMARK    2  A    between atoms: C8_10  and  O2_11 
REMARK    3  A    between atoms: C12_15  and  N2_16 
REMARK    4  A    between atoms: C18_24  and  O3_25 
REMARK    5  A    between atoms: C18_24  and  O4_26 
ROOT
HETATM    1  C1  LEV     1      15.870  17.511 -11.347  1.00  0.00     0.045 C 
HETATM    2  C2  LEV     1      16.353  17.473 -12.798  1.00  0.00     0.243 C 
HETATM    3  C3  LEV     1      17.899  17.586 -12.857  1.00  0.00     0.203 C 
HETATM    4  O1  LEV     1      18.554  16.419 -12.394  1.00  0.00    -0.379 OA
HETATM    5  C4  LEV     1      18.034  15.210 -12.942  1.00  0.00     0.191 C 
HETATM    6  C5  LEV     1      16.923  15.404 -14.009  1.00  0.00     0.261 C 
HETATM    7  N1  LEV     1      15.843  16.228 -13.436  1.00  0.00     0.103 N 
HETATM    8  C6  LEV     1      14.810  16.516 -14.451  1.00  0.00     0.285 C 
HETATM    9  C7  LEV     1      14.161  15.205 -14.948  1.00  0.00     0.098 C 
HETATM   10  C8  LEV     1      15.245  14.244 -15.503  1.00  0.00     0.135 C 
HETATM   11  C9  LEV     1      16.370  14.033 -14.462  1.00  0.00     0.054 C 
HETATM   12  C10 LEV     1      17.514  13.163 -15.035  1.00  0.00     0.049 C 
HETATM   13  C11 LEV     1      18.644  12.981 -14.008  1.00  0.00     0.206 C 
HETATM   14  C12 LEV     1      19.181  14.364 -13.541  1.00  0.00     0.287 C 
HETATM   15  F1  LEV     1      18.146  12.244 -12.946  1.00  0.00    -0.247 F 
ENDROOT
BRANCH  14  16
HETATM   16  N2  LEV     1      20.353  14.307 -12.623  1.00  0.00     0.102 N 
HETATM   17  C13 LEV     1      20.043  14.081 -11.200  1.00  0.00     0.303 C 
HETATM   18  C14 LEV     1      21.308  14.300 -10.360  1.00  0.00     0.302 C 
HETATM   19  N3  LEV     1      22.431  13.448 -10.803  1.00  0.00     0.087 N 
HETATM   20  C15 LEV     1      22.668  13.551 -12.258  1.00  0.00     0.302 C 
HETATM   21  C17 LEV     1      22.291  12.051 -10.355  1.00  0.00     0.310 C 
HETATM   22  C16 LEV     1      21.384  13.358 -13.079  1.00  0.00     0.303 C 
ENDBRANCH  14  16
BRANCH  10  23
HETATM   23  O2  LEV     1      14.679  13.011 -15.878  1.00  0.00    -0.395 OA
HETATM   24  H6  LEV     1      15.324  12.297 -15.633  1.00  0.00     0.210 HD
ENDBRANCH  10  23
BRANCH   9  25
HETATM   25  C18 LEV     1      13.057  15.481 -15.998  1.00  0.00     0.262 C 
BRANCH  25  26
HETATM   26  O3  LEV     1      11.934  14.682 -15.740  1.00  0.00    -0.371 OA
HETATM   27  H12 LEV     1      12.274  13.764 -15.573  1.00  0.00     0.212 HD
ENDBRANCH  25  26
BRANCH  25  28
HETATM   28  O4  LEV     1      13.533  15.206 -17.292  1.00  0.00    -0.371 OA
HETATM   29  H20 LEV     1      14.317  14.606 -17.188  1.00  0.00     0.212 HD
ENDBRANCH  25  28
ENDBRANCH   9  25
TORSDOF 5
ENDMDL
