MODEL 1
REMARK VINA RESULT:    -8.718      0.000      0.000
REMARK INTER + INTRA:         -16.008
REMARK INTER:                 -14.578
REMARK INTRA:                  -1.429
REMARK UNBOUND:                -1.429
REMARK  16 active torsions:
REMARK  status: ('A' for Active; 'I' for Inactive)
REMARK    1  A    between atoms: C3_3  and  C20_33 
REMARK    2  A    between atoms: C5_7  and  N2_10 
REMARK    3  A    between atoms: C6_8  and  O1_9 
REMARK    4  A    between atoms: N2_10  and  C7_11 
REMARK    5  A    between atoms: C7_11  and  O2_12 
REMARK    6  A    between atoms: C7_11  and  C8_13 
REMARK    7  A    between atoms: C8_13  and  C9_14 
REMARK    8  A    between atoms: C8_13  and  N3_20 
REMARK    9  A    between atoms: N3_20  and  C15_21 
REMARK   10  A    between atoms: C15_21  and  O3_22 
REMARK   11  A    between atoms: C15_21  and  N4_23 
REMARK   12  A    between atoms: C18_27  and  O4_28 
REMARK   13  A    between atoms: S2_29  and  O5_30 
REMARK   14  A    between atoms: S2_29  and  O6_31 
REMARK   15  A    between atoms: C20_33  and  O7_34 
REMARK   16  A    between atoms: C20_33  and  O8_35 
ROOT
HETATM    1  C8  MEZ     1     -23.375  -4.376  18.167  1.00  0.00     0.288 C 
ENDROOT
BRANCH   1   2
HETATM    2  C7  MEZ     1     -21.977  -3.681  18.012  1.00  0.00     0.388 C 
BRANCH   2   3
HETATM    3  N2  MEZ     1     -21.453  -3.785  16.635  1.00  0.00     0.126 N 
HETATM    4  H7  MEZ     1     -20.411  -3.694  16.634  1.00  0.00     0.320 HD
BRANCH   3   5
HETATM    5  C5  MEZ     1     -22.098  -2.881  15.661  1.00  0.00     0.325 A 
HETATM    6  C4  MEZ     1     -21.169  -2.017  14.796  1.00  0.00     0.326 A 
HETATM    7  N1  MEZ     1     -21.468  -2.765  13.569  1.00  0.00     0.146 N 
HETATM    8  S1  MEZ     1     -19.382  -2.018  15.175  1.00  0.00    -0.119 SA
HETATM    9  C3  MEZ     1     -20.239  -3.447  13.099  1.00  0.00     0.299 C 
HETATM   10  C6  MEZ     1     -22.434  -3.579  14.347  1.00  0.00     0.395 A 
HETATM   11  C2  MEZ     1     -19.023  -2.561  13.486  1.00  0.00     0.039 C 
HETATM   12  C1  MEZ     1     -18.870  -1.309  12.600  1.00  0.00     0.029 C 
HETATM   13  C21 MEZ     1     -17.698  -3.346  13.515  1.00  0.00     0.029 C 
BRANCH   9  14
HETATM   14  C20 MEZ     1     -20.380  -3.735  11.582  1.00  0.00     0.289 C 
BRANCH  14  15
HETATM   15  O7  MEZ     1     -21.149  -2.728  10.975  1.00  0.00    -0.369 OA
HETATM   16  H18 MEZ     1     -21.536  -3.124  10.152  1.00  0.00     0.212 HD
ENDBRANCH  14  15
BRANCH  14  17
HETATM   17  O8  MEZ     1     -20.973  -4.987  11.350  1.00  0.00    -0.369 OA
HETATM   18  H22 MEZ     1     -21.701  -5.092  12.019  1.00  0.00     0.212 HD
ENDBRANCH  14  17
ENDBRANCH   9  14
BRANCH  10  19
HETATM   19  O1  MEZ     1     -22.170  -4.960  14.362  1.00  0.00    -0.366 OA
HETATM   20  H2  MEZ     1     -21.248  -5.071  14.014  1.00  0.00     0.212 HD
ENDBRANCH  10  19
ENDBRANCH   3   5
ENDBRANCH   2   3
BRANCH   2  21
HETATM   21  O2  MEZ     1     -21.998  -2.336  18.433  1.00  0.00    -0.366 OA
HETATM   22  H4  MEZ     1     -21.062  -2.039  18.572  1.00  0.00     0.212 HD
ENDBRANCH   2  21
ENDBRANCH   1   2
BRANCH   1  23
HETATM   23  C9  MEZ     1     -23.327  -5.889  18.555  1.00  0.00     0.023 C 
HETATM   24  C10 MEZ     1     -22.377  -6.742  17.688  1.00  0.00     0.007 C 
HETATM   25  C11 MEZ     1     -22.614  -8.249  17.916  1.00  0.00     0.000 C 
HETATM   26  C12 MEZ     1     -23.069  -8.587  19.352  1.00  0.00     0.000 C 
HETATM   27  C13 MEZ     1     -22.554  -7.562  20.371  1.00  0.00     0.000 C 
HETATM   28  C14 MEZ     1     -23.072  -6.140  20.068  1.00  0.00     0.007 C 
ENDBRANCH   1  23
BRANCH   1  29
HETATM   29  N3  MEZ     1     -24.214  -3.677  19.173  1.00  0.00     0.152 N 
HETATM   30  H14 MEZ     1     -23.829  -2.746  19.455  1.00  0.00     0.322 HD
BRANCH  29  31
HETATM   31  C15 MEZ     1     -25.611  -3.505  18.741  1.00  0.00     0.600 C 
BRANCH  31  32
HETATM   32  O3  MEZ     1     -25.850  -2.144  18.468  1.00  0.00    -0.345 OA
HETATM   33  H12 MEZ     1     -26.828  -1.996  18.537  1.00  0.00     0.214 HD
ENDBRANCH  31  32
BRANCH  31  34
HETATM   34  N4  MEZ     1     -26.512  -3.940  19.828  1.00  0.00     0.198 N 
HETATM   35  C16 MEZ     1     -26.539  -5.388  20.000  1.00  0.00     0.304 C 
HETATM   36  C17 MEZ     1     -27.890  -5.688  20.616  1.00  0.00     0.168 C 
HETATM   37  N5  MEZ     1     -28.738  -4.528  20.380  1.00  0.00    -0.280 N 
HETATM   38  C18 MEZ     1     -27.923  -3.564  19.649  1.00  0.00     0.480 C 
HETATM   39  S2  MEZ     1     -30.063  -4.849  20.811  1.00  0.00     0.045 S 
HETATM   40  C19 MEZ     1     -29.833  -3.270  22.519  1.00  0.00     0.150 C 
BRANCH  38  41
HETATM   41  O4  MEZ     1     -28.308  -3.596  18.295  1.00  0.00    -0.352 OA
HETATM   42  H14 MEZ     1     -27.632  -3.075  17.789  1.00  0.00     0.214 HD
ENDBRANCH  38  41
BRANCH  39  43
HETATM   43  O5  MEZ     1     -31.377  -2.885  19.686  1.00  0.00    -0.312 OA
HETATM   44  H15 MEZ     1     -32.031  -2.546  20.348  1.00  0.00     0.230 HD
ENDBRANCH  39  43
BRANCH  39  45
HETATM   45  O6  MEZ     1     -31.075  -5.124  19.386  1.00  0.00    -0.312 OA
HETATM   46  H16 MEZ     1     -30.844  -5.834  18.736  1.00  0.00     0.230 HD
ENDBRANCH  39  45
ENDBRANCH  31  34
ENDBRANCH  29  31
ENDBRANCH   1  29
TORSDOF 16
ENDMDL
