MODEL 1
REMARK VINA RESULT:    -8.505      0.000      0.000
REMARK INTER + INTRA:         -17.950
REMARK INTER:                 -14.969
REMARK INTRA:                  -2.981
REMARK UNBOUND:                -2.981
REMARK  17 active torsions:
REMARK  status: ('A' for Active; 'I' for Inactive)
REMARK    1  A    between atoms: C3_3  and  C21_38 
REMARK    2  A    between atoms: C3_3  and  O12_40 
REMARK    3  A    between atoms: C4_4  and  O6_25 
REMARK    4  A    between atoms: C5_5  and  O2_7 
REMARK    5  A    between atoms: O2_7  and  C6_8 
REMARK    6  A    between atoms: C7_9  and  N4_21 
REMARK    7  A    between atoms: C8_10  and  O5_20 
REMARK    8  A    between atoms: C9_11  and  N1_16 
REMARK    9  A    between atoms: C10_12  and  O4_15 
REMARK   10  A    between atoms: C11_13  and  O3_14 
REMARK       I    between atoms: N1_16  and  C12_17 
REMARK       I    between atoms: C12_17  and  N2_18 
REMARK       I    between atoms: C12_17  and  N3_19 
REMARK       I    between atoms: N4_21  and  C13_22 
REMARK       I    between atoms: C13_22  and  N5_23 
REMARK       I    between atoms: C13_22  and  N6_24 
REMARK   11  A    between atoms: O6_25  and  C14_26 
REMARK   12  A    between atoms: C15_27  and  N7_36 
REMARK   13  A    between atoms: C16_28  and  O10_35 
REMARK   14  A    between atoms: C17_29  and  O9_34 
REMARK   15  A    between atoms: C18_30  and  C19_32 
REMARK   16  A    between atoms: C19_32  and  O8_33 
REMARK   17  A    between atoms: C21_38  and  O11_39 
ROOT
HETATM    1  C6  STM     1      15.080  20.522 -17.764  1.00  0.00     0.192 C 
HETATM    2  C7  STM     1      14.495  21.959 -17.822  1.00  0.00     0.287 C 
HETATM    3  C8  STM     1      13.884  22.271 -19.215  1.00  0.00     0.190 C 
HETATM    4  C9  STM     1      12.817  21.201 -19.592  1.00  0.00     0.287 C 
HETATM    5  C10 STM     1      13.382  19.760 -19.506  1.00  0.00     0.185 C 
HETATM    6  C11 STM     1      13.977  19.489 -18.108  1.00  0.00     0.180 C 
ENDROOT
BRANCH   1   7
HETATM    7  O2  STM     1      15.576  20.298 -16.451  1.00  0.00    -0.348 OA
BRANCH   7   8
HETATM    8  C5  STM     1      14.543  20.089 -15.495  1.00  0.00     0.293 C 
HETATM    9  C4  STM     1      14.954  18.973 -14.532  1.00  0.00     0.218 C 
HETATM   10  C3  STM     1      15.630  19.724 -13.379  1.00  0.00     0.135 C 
HETATM   11  C2  STM     1      15.230  21.207 -13.644  1.00  0.00     0.160 C 
HETATM   12  C1  STM     1      14.545  21.905 -12.464  1.00  0.00     0.043 C 
HETATM   13  O1  STM     1      14.362  21.264 -14.749  1.00  0.00    -0.350 OA
BRANCH   9  14
HETATM   14  O6  STM     1      13.796  18.288 -14.070  1.00  0.00    -0.346 OA
BRANCH  14  15
HETATM   15  C14 STM     1      13.915  16.873 -14.205  1.00  0.00     0.297 C 
HETATM   16  C15 STM     1      12.691  16.305 -14.983  1.00  0.00     0.305 C 
HETATM   17  C16 STM     1      12.949  14.858 -15.495  1.00  0.00     0.187 C 
HETATM   18  C17 STM     1      14.177  14.233 -14.793  1.00  0.00     0.180 C 
HETATM   19  C18 STM     1      15.419  15.182 -14.890  1.00  0.00     0.179 C 
HETATM   20  O7  STM     1      15.108  16.579 -14.905  1.00  0.00    -0.349 OA
BRANCH  16  21
HETATM   21  N7  STM     1      12.214  17.183 -16.086  1.00  0.00     0.091 N 
HETATM   22  C20 STM     1      11.717  16.474 -17.279  1.00  0.00     0.307 C 
HETATM   23  H34 STM     1      12.997  17.805 -16.385  1.00  0.00     0.316 HD
ENDBRANCH  16  21
BRANCH  17  24
HETATM   24  O10 STM     1      11.807  14.073 -15.257  1.00  0.00    -0.391 OA
HETATM   25  H33 STM     1      11.932  13.221 -15.750  1.00  0.00     0.210 HD
ENDBRANCH  17  24
BRANCH  18  26
HETATM   26  O9  STM     1      14.482  12.965 -15.320  1.00  0.00    -0.390 OA
HETATM   27  H32 STM     1      14.823  12.399 -14.585  1.00  0.00     0.210 HD
ENDBRANCH  18  26
BRANCH  19  28
HETATM   28  C19 STM     1      16.438  14.885 -13.775  1.00  0.00     0.198 C 
BRANCH  28  29
HETATM   29  O8  STM     1      15.829  14.160 -12.740  1.00  0.00    -0.398 OA
HETATM   30  H31 STM     1      16.321  14.374 -11.901  1.00  0.00     0.209 HD
ENDBRANCH  28  29
ENDBRANCH  19  28
ENDBRANCH  14  15
ENDBRANCH   9  14
BRANCH  10  31
HETATM   31  C21 STM     1      17.173  19.541 -13.413  1.00  0.00     0.207 C 
BRANCH  31  32
HETATM   32  O11 STM     1      17.526  18.293 -13.945  1.00  0.00    -0.398 OA
HETATM   33  H6  STM     1      17.154  18.276 -14.869  1.00  0.00     0.209 HD
ENDBRANCH  31  32
ENDBRANCH  10  31
BRANCH  10  34
HETATM   34  O12 STM     1      15.137  19.236 -12.147  1.00  0.00    -0.382 OA
HETATM   35  H39 STM     1      15.620  18.404 -11.924  1.00  0.00     0.210 HD
ENDBRANCH  10  34
ENDBRANCH   7   8
ENDBRANCH   1   7
BRANCH   2  36
HETATM   36  N4  STM     1      15.462  22.984 -17.349  1.00  0.00     0.156 N 
HETATM   37  C13 STM     1      16.891  22.717 -17.596  1.00  0.00     0.674 C 
HETATM   38  N5  STM     1      17.694  23.538 -16.683  1.00  0.00     0.142 N 
HETATM   39  N6  STM     1      17.242  23.026 -18.989  1.00  0.00     0.142 N 
HETATM   40  H20 STM     1      18.691  23.213 -16.732  1.00  0.00     0.318 HD
HETATM   41  H21 STM     1      17.371  23.362 -15.703  1.00  0.00     0.318 HD
HETATM   42  H22 STM     1      17.900  22.281 -19.342  1.00  0.00     0.318 HD
HETATM   43  H23 STM     1      17.755  23.941 -19.053  1.00  0.00     0.318 HD
HETATM   44  H3  STM     1      15.212  23.917 -17.756  1.00  0.00     0.321 HD
ENDBRANCH   2  36
BRANCH   6  45
HETATM   45  O3  STM     1      14.521  18.195 -18.090  1.00  0.00    -0.390 OA
HETATM   46  H13 STM     1      15.148  18.140 -18.855  1.00  0.00     0.210 HD
ENDBRANCH   6  45
BRANCH   3  47
HETATM   47  O5  STM     1      13.311  23.557 -19.224  1.00  0.00    -0.391 OA
HETATM   48  H19 STM     1      13.449  23.963 -18.327  1.00  0.00     0.210 HD
ENDBRANCH   3  47
BRANCH   5  49
HETATM   49  O4  STM     1      12.362  18.822 -19.748  1.00  0.00    -0.391 OA
HETATM   50  H14 STM     1      12.802  17.980 -20.050  1.00  0.00     0.210 HD
ENDBRANCH   5  49
BRANCH   4  51
HETATM   51  N1  STM     1      12.129  21.437 -20.886  1.00  0.00     0.156 N 
HETATM   52  C12 STM     1      10.676  21.725 -20.910  1.00  0.00     0.674 C 
HETATM   53  N2  STM     1      10.305  22.731 -19.916  1.00  0.00     0.142 N 
HETATM   54  N3  STM     1       9.890  20.508 -20.716  1.00  0.00     0.142 N 
HETATM   55  H15 STM     1       9.269  22.891 -19.973  1.00  0.00     0.318 HD
HETATM   56  H16 STM     1      10.739  23.644 -20.194  1.00  0.00     0.318 HD
HETATM   57  H17 STM     1       8.882  20.745 -20.841  1.00  0.00     0.318 HD
HETATM   58  H18 STM     1      10.117  19.847 -21.494  1.00  0.00     0.318 HD
HETATM   59  H1  STM     1      12.335  20.648 -21.540  1.00  0.00     0.321 HD
ENDBRANCH   4  51
TORSDOF 17
ENDMDL
