MODEL 1
REMARK VINA RESULT:      -7.3      0.000      0.000
REMARK  9 active torsions:
REMARK  status: ('A' for Active; 'I' for Inactive)
REMARK    1  A    between atoms: O1_2  and  C11_9 
REMARK    2  A    between atoms: O1_2  and  C6_8 
REMARK    3  A    between atoms: C2_3  and  N31_31 
REMARK    4  A    between atoms: O2_4  and  C21_19 
REMARK    5  A    between atoms: O2_4  and  C4_6 
REMARK    6  A    between atoms: C13_14  and  C17_18 
REMARK    7  A    between atoms: C25_25  and  C27_27 
REMARK    8  A    between atoms: N31_31  and  C32_32 
REMARK    9  A    between atoms: C32_32  and  C33_33 
ROOT
HETATM    1  C1  Z34 A 500      21.431  -3.328  37.448  1.00 33.01     0.199 A 
HETATM    2  C2  Z34 A 500      22.488  -2.478  37.853  1.00 35.72     0.119 A 
HETATM    3  C3  Z34 A 500      23.214  -1.786  36.847  1.00 32.60     0.199 A 
HETATM    4  C4  Z34 A 500      22.872  -1.953  35.499  1.00 28.35     0.214 A 
HETATM    5  N5  Z34 A 500      21.870  -2.754  35.181  1.00 26.32    -0.194 NA
HETATM    6  C6  Z34 A 500      21.136  -3.438  36.073  1.00 28.67     0.214 A 
HETATM    7  F1  Z34 A 500      20.730  -4.001  38.321  1.00 33.88    -0.199 F 
HETATM    8  F2  Z34 A 500      24.194  -1.001  37.148  1.00 34.74    -0.199 F 
ENDROOT
BRANCH   4   9
HETATM    9  O2  Z34 A 500      23.562  -1.322  34.585  1.00 24.97    -0.288 OA
BRANCH   9  10
HETATM   10  C21 Z34 A 500      24.282  -1.704  33.535  1.00 26.73     0.102 A 
HETATM   11  C22 Z34 A 500      25.637  -2.044  33.805  1.00 24.69     0.025 A 
HETATM   12  C23 Z34 A 500      26.485  -2.454  32.760  1.00 24.68     0.002 A 
HETATM   13  C24 Z34 A 500      25.978  -2.515  31.452  1.00 24.81     0.003 A 
HETATM   14  C25 Z34 A 500      24.621  -2.177  31.179  1.00 28.62     0.035 A 
HETATM   15  C26 Z34 A 500      23.796  -1.773  32.229  1.00 25.20     0.028 A 
BRANCH  14  16
HETATM   16  C27 Z34 A 500      24.109  -2.253  29.886  1.00 30.28     0.135 A 
HETATM   17  N21 Z34 A 500      23.880  -3.328  29.113  1.00 31.15    -0.330 N 
HETATM   18  C28 Z34 A 500      23.343  -2.933  27.859  1.00 32.13     0.129 A 
HETATM   19  C30 Z34 A 500      24.106  -4.695  29.424  1.00 32.81     0.127 C 
HETATM   20  C29 Z34 A 500      23.265  -1.396  27.949  1.00 33.72     0.151 A 
HETATM   21  N22 Z34 A 500      23.762  -1.132  29.237  1.00 33.16    -0.253 NA
ENDBRANCH  14  16
ENDBRANCH   9  10
ENDBRANCH   4   9
BRANCH   2  22
HETATM   22  N31 Z34 A 500      22.800  -2.341  39.182  1.00 39.62    -0.334 N 
HETATM   23  C36 Z34 A 500      23.923  -3.068  39.733  1.00 39.25     0.126 C 
BRANCH  22  24
HETATM   24  C32 Z34 A 500      22.006  -1.452  40.037  1.00 46.25     0.201 C 
BRANCH  24  25
HETATM   25  C33 Z34 A 500      21.304  -0.295  39.365  1.00 52.25     0.209 C 
HETATM   26  O34 Z34 A 500      20.061  -0.300  39.102  1.00 55.74    -0.646 OA
HETATM   27  O35 Z34 A 500      22.014   0.826  39.030  1.00 53.23    -0.646 OA
ENDBRANCH  24  25
ENDBRANCH  22  24
ENDBRANCH   2  22
BRANCH   6  28
HETATM   28  O1  Z34 A 500      20.151  -4.213  35.635  1.00 23.64    -0.284 OA
BRANCH  28  29
HETATM   29  C11 Z34 A 500      18.857  -4.082  35.930  1.00 19.65     0.141 A 
HETATM   30  C12 Z34 A 500      18.394  -2.788  36.176  1.00 17.96     0.031 A 
HETATM   31  C13 Z34 A 500      17.038  -2.533  36.490  1.00 17.45     0.042 A 
HETATM   32  C14 Z34 A 500      16.143  -3.645  36.549  1.00 14.40     0.007 A 
HETATM   33  C15 Z34 A 500      16.605  -4.948  36.295  1.00 14.00     0.044 A 
HETATM   34  C16 Z34 A 500      17.968  -5.167  35.981  1.00 18.90     0.218 A 
HETATM   35  O11 Z34 A 500      18.382  -6.359  35.743  1.00 17.07    -0.284 OA
BRANCH  31  36
HETATM   36  C17 Z34 A 500      16.620  -1.229  36.734  1.00 14.31     0.205 C 
HETATM   37  N11 Z34 A 500      15.317  -0.923  36.906  1.00 15.76    -0.125 N 
HETATM   38  N12 Z34 A 500      17.462  -0.211  36.851  1.00 14.20    -0.125 N 
ENDBRANCH  31  36
ENDBRANCH  28  29
ENDBRANCH   6  28
TORSDOF 9
ENDMDL
