MODEL 1
REMARK VINA RESULT:      -8.8      0.000      0.000
REMARK  9 active torsions:
REMARK  status: ('A' for Active; 'I' for Inactive)
REMARK    1  A    between atoms: O1_2  and  C11_9 
REMARK    2  A    between atoms: O1_2  and  C6_8 
REMARK    3  A    between atoms: C2_3  and  N31_31 
REMARK    4  A    between atoms: O2_4  and  C21_19 
REMARK    5  A    between atoms: O2_4  and  C4_6 
REMARK    6  A    between atoms: C13_14  and  C17_18 
REMARK    7  A    between atoms: C25_25  and  C27_27 
REMARK    8  A    between atoms: N31_31  and  C32_32 
REMARK    9  A    between atoms: C32_32  and  C33_33 
ROOT
HETATM    1  C1  Z34 A 500       6.645  10.291  21.385  1.00 33.01     0.199 A 
HETATM    2  C2  Z34 A 500       5.932   9.754  20.287  1.00 35.72     0.119 A 
HETATM    3  C3  Z34 A 500       6.351   8.500  19.765  1.00 32.60     0.199 A 
HETATM    4  C4  Z34 A 500       7.439   7.832  20.341  1.00 28.35     0.214 A 
HETATM    5  N5  Z34 A 500       8.061   8.379  21.370  1.00 26.32    -0.194 NA
HETATM    6  C6  Z34 A 500       7.724   9.556  21.921  1.00 28.67     0.214 A 
HETATM    7  F1  Z34 A 500       6.319  11.443  21.907  1.00 33.88    -0.199 F 
HETATM    8  F2  Z34 A 500       5.749   7.958  18.760  1.00 34.74    -0.199 F 
ENDROOT
BRANCH   4   9
HETATM    9  O2  Z34 A 500       7.822   6.688  19.837  1.00 24.97    -0.288 OA
BRANCH   9  10
HETATM   10  C21 Z34 A 500       7.480   5.420  20.045  1.00 26.73     0.102 A 
HETATM   11  C22 Z34 A 500       6.616   5.186  21.151  1.00 24.69     0.025 A 
HETATM   12  C23 Z34 A 500       6.202   3.876  21.461  1.00 24.68     0.002 A 
HETATM   13  C24 Z34 A 500       6.658   2.810  20.669  1.00 24.81     0.003 A 
HETATM   14  C25 Z34 A 500       7.522   3.043  19.560  1.00 28.62     0.035 A 
HETATM   15  C26 Z34 A 500       7.921   4.348  19.269  1.00 25.20     0.028 A 
BRANCH  14  16
HETATM   16  C27 Z34 A 500       7.962   1.990  18.761  1.00 30.28     0.135 A 
HETATM   17  N21 Z34 A 500       7.399   1.443  17.671  1.00 31.15    -0.330 N 
HETATM   18  C28 Z34 A 500       8.206   0.385  17.172  1.00 32.13     0.129 A 
HETATM   19  C30 Z34 A 500       6.181   1.805  17.038  1.00 32.81     0.127 C 
HETATM   20  C29 Z34 A 500       9.405   0.337  18.140  1.00 33.72     0.151 A 
HETATM   21  N22 Z34 A 500       9.116   1.371  19.047  1.00 33.16    -0.253 NA
ENDBRANCH  14  16
ENDBRANCH   9  10
ENDBRANCH   4   9
BRANCH   2  22
HETATM   22  N31 Z34 A 500       4.873  10.436  19.743  1.00 39.62    -0.334 N 
HETATM   23  C36 Z34 A 500       3.525  10.113  20.156  1.00 39.25     0.126 C 
BRANCH  22  24
HETATM   24  C32 Z34 A 500       5.109  11.495  18.757  1.00 46.25     0.201 C 
BRANCH  24  25
HETATM   25  C33 Z34 A 500       5.329  11.068  17.324  1.00 52.25     0.209 C 
HETATM   26  O34 Z34 A 500       6.394  10.500  16.929  1.00 55.74    -0.646 OA
HETATM   27  O35 Z34 A 500       4.345  11.279  16.396  1.00 53.23    -0.646 OA
ENDBRANCH  24  25
ENDBRANCH  22  24
ENDBRANCH   2  22
BRANCH   6  28
HETATM   28  O1  Z34 A 500       8.423  10.006  22.956  1.00 23.64    -0.284 OA
BRANCH  28  29
HETATM   29  C11 Z34 A 500       8.441   9.481  24.181  1.00 19.65     0.141 A 
HETATM   30  C12 Z34 A 500       9.695   9.206  24.731  1.00 17.96     0.031 A 
HETATM   31  C13 Z34 A 500       9.831   8.655  26.028  1.00 17.45     0.042 A 
HETATM   32  C14 Z34 A 500       8.640   8.386  26.770  1.00 14.40     0.007 A 
HETATM   33  C15 Z34 A 500       7.378   8.669  26.222  1.00 14.00     0.044 A 
HETATM   34  C16 Z34 A 500       7.277   9.222  24.923  1.00 18.90     0.218 A 
HETATM   35  O11 Z34 A 500       6.120   9.484  24.431  1.00 17.07    -0.284 OA
BRANCH  31  36
HETATM   36  C17 Z34 A 500      11.099   8.391  26.534  1.00 14.31     0.205 C 
HETATM   37  N11 Z34 A 500      11.276   7.880  27.771  1.00 15.76    -0.125 N 
HETATM   38  N12 Z34 A 500      12.210   8.583  25.835  1.00 14.20    -0.125 N 
ENDBRANCH  31  36
ENDBRANCH  28  29
ENDBRANCH   6  28
TORSDOF 9
ENDMDL
