MODEL 1
REMARK VINA RESULT:      -8.8      0.000      0.000
REMARK  9 active torsions:
REMARK  status: ('A' for Active; 'I' for Inactive)
REMARK    1  A    between atoms: O1_2  and  C11_9 
REMARK    2  A    between atoms: O1_2  and  C6_8 
REMARK    3  A    between atoms: C2_3  and  N31_31 
REMARK    4  A    between atoms: O2_4  and  C21_19 
REMARK    5  A    between atoms: O2_4  and  C4_6 
REMARK    6  A    between atoms: C13_14  and  C17_18 
REMARK    7  A    between atoms: C25_25  and  C27_27 
REMARK    8  A    between atoms: N31_31  and  C32_32 
REMARK    9  A    between atoms: C32_32  and  C33_33 
ROOT
HETATM    1  C1  Z34 A 500       4.394   8.948  23.794  1.00 33.01     0.199 A 
HETATM    2  C2  Z34 A 500       3.723   8.240  22.769  1.00 35.72     0.119 A 
HETATM    3  C3  Z34 A 500       4.496   7.417  21.906  1.00 32.60     0.199 A 
HETATM    4  C4  Z34 A 500       5.882   7.321  22.089  1.00 28.35     0.214 A 
HETATM    5  N5  Z34 A 500       6.452   7.999  23.069  1.00 26.32    -0.194 NA
HETATM    6  C6  Z34 A 500       5.791   8.793  23.926  1.00 28.67     0.214 A 
HETATM    7  F1  Z34 A 500       3.746   9.729  24.616  1.00 33.88    -0.199 F 
HETATM    8  F2  Z34 A 500       3.948   6.751  20.946  1.00 34.74    -0.199 F 
ENDROOT
BRANCH   4   9
HETATM    9  O2  Z34 A 500       6.580   6.572  21.275  1.00 24.97    -0.288 OA
BRANCH   9  10
HETATM   10  C21 Z34 A 500       6.573   5.280  20.966  1.00 26.73     0.102 A 
HETATM   11  C22 Z34 A 500       6.178   4.396  22.008  1.00 24.69     0.025 A 
HETATM   12  C23 Z34 A 500       6.146   3.007  21.783  1.00 24.68     0.002 A 
HETATM   13  C24 Z34 A 500       6.513   2.509  20.522  1.00 24.81     0.003 A 
HETATM   14  C25 Z34 A 500       6.907   3.393  19.476  1.00 28.62     0.035 A 
HETATM   15  C26 Z34 A 500       6.933   4.767  19.719  1.00 25.20     0.028 A 
BRANCH  14  16
HETATM   16  C27 Z34 A 500       7.255   2.905  18.219  1.00 30.28     0.135 A 
HETATM   17  N21 Z34 A 500       8.342   2.217  17.833  1.00 31.15    -0.330 N 
HETATM   18  C28 Z34 A 500       8.277   1.920  16.445  1.00 32.13     0.129 A 
HETATM   19  C30 Z34 A 500       9.443   1.800  18.627  1.00 32.81     0.127 C 
HETATM   20  C29 Z34 A 500       6.944   2.546  15.989  1.00 33.72     0.151 A 
HETATM   21  N22 Z34 A 500       6.437   3.104  17.175  1.00 33.16    -0.253 NA
ENDBRANCH  14  16
ENDBRANCH   9  10
ENDBRANCH   4   9
BRANCH   2  22
HETATM   22  N31 Z34 A 500       2.365   8.360  22.614  1.00 39.62    -0.334 N 
HETATM   23  C36 Z34 A 500       1.836   9.169  21.538  1.00 39.25     0.126 C 
BRANCH  22  24
HETATM   24  C32 Z34 A 500       1.456   7.661  23.529  1.00 46.25     0.201 C 
BRANCH  24  25
HETATM   25  C33 Z34 A 500       1.655   6.173  23.697  1.00 52.25     0.209 C 
HETATM   26  O34 Z34 A 500       1.849   5.626  24.828  1.00 55.74    -0.646 OA
HETATM   27  O35 Z34 A 500       1.615   5.356  22.600  1.00 53.23    -0.646 OA
ENDBRANCH  24  25
ENDBRANCH  22  24
ENDBRANCH   2  22
BRANCH   6  28
HETATM   28  O1  Z34 A 500       6.472   9.425  24.874  1.00 23.64    -0.284 OA
BRANCH  28  29
HETATM   29  C11 Z34 A 500       7.792   9.381  25.056  1.00 19.65     0.141 A 
HETATM   30  C12 Z34 A 500       8.258   8.589  26.108  1.00 17.96     0.031 A 
HETATM   31  C13 Z34 A 500       9.640   8.464  26.385  1.00 17.45     0.042 A 
HETATM   32  C14 Z34 A 500      10.558   9.175  25.554  1.00 14.40     0.007 A 
HETATM   33  C15 Z34 A 500      10.092   9.967  24.491  1.00 14.00     0.044 A 
HETATM   34  C16 Z34 A 500       8.703  10.068  24.238  1.00 18.90     0.218 A 
HETATM   35  O11 Z34 A 500       8.285  10.788  23.261  1.00 17.07    -0.284 OA
BRANCH  31  36
HETATM   36  C17 Z34 A 500      10.059   7.669  27.447  1.00 14.31     0.205 C 
HETATM   37  N11 Z34 A 500       9.200   6.874  28.119  1.00 15.76    -0.125 N 
HETATM   38  N12 Z34 A 500      11.322   7.607  27.847  1.00 14.20    -0.125 N 
ENDBRANCH  31  36
ENDBRANCH  28  29
ENDBRANCH   6  28
TORSDOF 9
ENDMDL
