MODEL 1
REMARK VINA RESULT:      -9.2      0.000      0.000
REMARK  9 active torsions:
REMARK  status: ('A' for Active; 'I' for Inactive)
REMARK    1  A    between atoms: O1_2  and  C11_9 
REMARK    2  A    between atoms: O1_2  and  C6_8 
REMARK    3  A    between atoms: C2_3  and  N31_31 
REMARK    4  A    between atoms: O2_4  and  C21_19 
REMARK    5  A    between atoms: O2_4  and  C4_6 
REMARK    6  A    between atoms: C13_14  and  C17_18 
REMARK    7  A    between atoms: C25_25  and  C27_27 
REMARK    8  A    between atoms: N31_31  and  C32_32 
REMARK    9  A    between atoms: C32_32  and  C33_33 
ROOT
HETATM    1  C1  Z34 A 500       4.303   9.061  23.807  1.00 33.01     0.199 A 
HETATM    2  C2  Z34 A 500       3.596   8.375  22.790  1.00 35.72     0.119 A 
HETATM    3  C3  Z34 A 500       4.321   7.481  21.956  1.00 32.60     0.199 A 
HETATM    4  C4  Z34 A 500       5.695   7.298  22.157  1.00 28.35     0.214 A 
HETATM    5  N5  Z34 A 500       6.300   7.960  23.128  1.00 26.32    -0.194 NA
HETATM    6  C6  Z34 A 500       5.684   8.817  23.958  1.00 28.67     0.214 A 
HETATM    7  F1  Z34 A 500       3.699   9.904  24.602  1.00 33.88    -0.199 F 
HETATM    8  F2  Z34 A 500       3.739   6.830  21.006  1.00 34.74    -0.199 F 
ENDROOT
BRANCH   4   9
HETATM    9  O2  Z34 A 500       6.350   6.485  21.370  1.00 24.97    -0.288 OA
BRANCH   9  10
HETATM   10  C21 Z34 A 500       6.351   5.169  21.186  1.00 26.73     0.102 A 
HETATM   11  C22 Z34 A 500       5.585   4.414  22.118  1.00 24.69     0.025 A 
HETATM   12  C23 Z34 A 500       5.527   3.011  22.015  1.00 24.68     0.002 A 
HETATM   13  C24 Z34 A 500       6.239   2.372  20.986  1.00 24.81     0.003 A 
HETATM   14  C25 Z34 A 500       7.005   3.126  20.051  1.00 28.62     0.035 A 
HETATM   15  C26 Z34 A 500       7.049   4.515  20.170  1.00 25.20     0.028 A 
BRANCH  14  16
HETATM   16  C27 Z34 A 500       7.697   2.497  19.019  1.00 30.28     0.135 A 
HETATM   17  N21 Z34 A 500       7.544   2.605  17.689  1.00 31.15    -0.330 N 
HETATM   18  C28 Z34 A 500       8.479   1.776  17.012  1.00 32.13     0.129 A 
HETATM   19  C30 Z34 A 500       6.616   3.408  16.976  1.00 32.81     0.127 C 
HETATM   20  C29 Z34 A 500       9.273   1.099  18.147  1.00 33.72     0.151 A 
HETATM   21  N22 Z34 A 500       8.686   1.638  19.304  1.00 33.16    -0.253 NA
ENDBRANCH  14  16
ENDBRANCH   9  10
ENDBRANCH   4   9
BRANCH   2  22
HETATM   22  N31 Z34 A 500       2.250   8.581  22.617  1.00 39.62    -0.334 N 
HETATM   23  C36 Z34 A 500       1.792   9.746  21.892  1.00 39.25     0.126 C 
BRANCH  22  24
HETATM   24  C32 Z34 A 500       1.284   7.619  23.155  1.00 46.25     0.201 C 
BRANCH  24  25
HETATM   25  C33 Z34 A 500       1.615   6.975  24.481  1.00 52.25     0.209 C 
HETATM   26  O34 Z34 A 500       1.291   7.487  25.598  1.00 55.74    -0.646 OA
HETATM   27  O35 Z34 A 500       2.280   5.779  24.505  1.00 53.23    -0.646 OA
ENDBRANCH  24  25
ENDBRANCH  22  24
ENDBRANCH   2  22
BRANCH   6  28
HETATM   28  O1  Z34 A 500       6.396   9.425  24.899  1.00 23.64    -0.284 OA
BRANCH  28  29
HETATM   29  C11 Z34 A 500       7.720   9.370  25.042  1.00 19.65     0.141 A 
HETATM   30  C12 Z34 A 500       8.210   8.585  26.088  1.00 17.96     0.031 A 
HETATM   31  C13 Z34 A 500       9.599   8.450  26.325  1.00 17.45     0.042 A 
HETATM   32  C14 Z34 A 500      10.498   9.142  25.458  1.00 14.40     0.007 A 
HETATM   33  C15 Z34 A 500      10.008   9.926  24.400  1.00 14.00     0.044 A 
HETATM   34  C16 Z34 A 500       8.613  10.038  24.188  1.00 18.90     0.218 A 
HETATM   35  O11 Z34 A 500       8.173  10.751  23.216  1.00 17.07    -0.284 OA
BRANCH  31  36
HETATM   36  C17 Z34 A 500      10.043   7.663  27.383  1.00 14.31     0.205 C 
HETATM   37  N11 Z34 A 500      11.337   7.660  27.769  1.00 15.76    -0.125 N 
HETATM   38  N12 Z34 A 500       9.234   6.898  28.104  1.00 14.20    -0.125 N 
ENDBRANCH  31  36
ENDBRANCH  28  29
ENDBRANCH   6  28
TORSDOF 9
ENDMDL
