MODEL 1
REMARK VINA RESULT:      -7.9      0.000      0.000
REMARK  9 active torsions:
REMARK  status: ('A' for Active; 'I' for Inactive)
REMARK    1  A    between atoms: O1_2  and  C11_9 
REMARK    2  A    between atoms: O1_2  and  C6_8 
REMARK    3  A    between atoms: C2_3  and  N31_31 
REMARK    4  A    between atoms: O2_4  and  C21_19 
REMARK    5  A    between atoms: O2_4  and  C4_6 
REMARK    6  A    between atoms: C13_14  and  C17_18 
REMARK    7  A    between atoms: C25_25  and  C27_27 
REMARK    8  A    between atoms: N31_31  and  C32_32 
REMARK    9  A    between atoms: C32_32  and  C33_33 
ROOT
HETATM    1  C1  Z34 A 500      35.734   7.046  17.356  1.00 33.01     0.199 A 
HETATM    2  C2  Z34 A 500      35.534   5.658  17.546  1.00 35.72     0.119 A 
HETATM    3  C3  Z34 A 500      36.044   5.062  18.731  1.00 32.60     0.199 A 
HETATM    4  C4  Z34 A 500      36.719   5.850  19.672  1.00 28.35     0.214 A 
HETATM    5  N5  Z34 A 500      36.869   7.143  19.445  1.00 26.32    -0.194 NA
HETATM    6  C6  Z34 A 500      36.413   7.777  18.354  1.00 28.67     0.214 A 
HETATM    7  F1  Z34 A 500      35.299   7.654  16.285  1.00 33.88    -0.199 F 
HETATM    8  F2  Z34 A 500      35.903   3.800  18.962  1.00 34.74    -0.199 F 
ENDROOT
BRANCH   4   9
HETATM    9  O2  Z34 A 500      37.198   5.283  20.749  1.00 24.97    -0.288 OA
BRANCH   9  10
HETATM   10  C21 Z34 A 500      38.420   4.985  21.177  1.00 26.73     0.102 A 
HETATM   11  C22 Z34 A 500      39.476   5.764  20.627  1.00 24.69     0.025 A 
HETATM   12  C23 Z34 A 500      40.808   5.522  21.010  1.00 24.68     0.002 A 
HETATM   13  C24 Z34 A 500      41.079   4.501  21.935  1.00 24.81     0.003 A 
HETATM   14  C25 Z34 A 500      40.024   3.720  22.489  1.00 28.62     0.035 A 
HETATM   15  C26 Z34 A 500      38.709   3.976  22.097  1.00 25.20     0.028 A 
BRANCH  14  16
HETATM   16  C27 Z34 A 500      40.286   2.718  23.419  1.00 30.28     0.135 A 
HETATM   17  N21 Z34 A 500      40.862   1.516  23.251  1.00 31.15    -0.330 N 
HETATM   18  C28 Z34 A 500      40.929   0.818  24.487  1.00 32.13     0.129 A 
HETATM   19  C30 Z34 A 500      41.363   0.944  22.052  1.00 32.81     0.127 C 
HETATM   20  C29 Z34 A 500      40.286   1.786  25.501  1.00 33.72     0.151 A 
HETATM   21  N22 Z34 A 500      39.949   2.894  24.705  1.00 33.16    -0.253 NA
ENDBRANCH  14  16
ENDBRANCH   9  10
ENDBRANCH   4   9
BRANCH   2  22
HETATM   22  N31 Z34 A 500      34.871   4.914  16.601  1.00 39.62    -0.334 N 
HETATM   23  C36 Z34 A 500      35.559   4.518  15.391  1.00 39.25     0.126 C 
BRANCH  22  24
HETATM   24  C32 Z34 A 500      33.478   4.515  16.823  1.00 46.25     0.201 C 
BRANCH  24  25
HETATM   25  C33 Z34 A 500      33.147   3.048  16.669  1.00 52.25     0.209 C 
HETATM   26  O34 Z34 A 500      32.104   2.635  16.072  1.00 55.74    -0.646 OA
HETATM   27  O35 Z34 A 500      34.000   2.105  17.173  1.00 53.23    -0.646 OA
ENDBRANCH  24  25
ENDBRANCH  22  24
ENDBRANCH   2  22
BRANCH   6  28
HETATM   28  O1  Z34 A 500      36.622   9.082  18.234  1.00 23.64    -0.284 OA
BRANCH  28  29
HETATM   29  C11 Z34 A 500      36.096  10.037  19.001  1.00 19.65     0.141 A 
HETATM   30  C12 Z34 A 500      36.953  10.656  19.915  1.00 17.96     0.031 A 
HETATM   31  C13 Z34 A 500      36.501  11.687  20.773  1.00 17.45     0.042 A 
HETATM   32  C14 Z34 A 500      35.133  12.085  20.680  1.00 14.40     0.007 A 
HETATM   33  C15 Z34 A 500      34.271  11.469  19.757  1.00 14.00     0.044 A 
HETATM   34  C16 Z34 A 500      34.755  10.442  18.911  1.00 18.90     0.218 A 
HETATM   35  O11 Z34 A 500      33.963   9.889  18.066  1.00 17.07    -0.284 OA
BRANCH  31  36
HETATM   36  C17 Z34 A 500      37.387  12.271  21.672  1.00 14.31     0.205 C 
HETATM   37  N11 Z34 A 500      38.690  11.919  21.713  1.00 15.76    -0.125 N 
HETATM   38  N12 Z34 A 500      37.031  13.229  22.517  1.00 14.20    -0.125 N 
ENDBRANCH  31  36
ENDBRANCH  28  29
ENDBRANCH   6  28
TORSDOF 9
ENDMDL
