MODEL 1
REMARK VINA RESULT:      -8.4      0.000      0.000
REMARK  9 active torsions:
REMARK  status: ('A' for Active; 'I' for Inactive)
REMARK    1  A    between atoms: O1_2  and  C11_9 
REMARK    2  A    between atoms: O1_2  and  C6_8 
REMARK    3  A    between atoms: C2_3  and  N31_31 
REMARK    4  A    between atoms: O2_4  and  C21_19 
REMARK    5  A    between atoms: O2_4  and  C4_6 
REMARK    6  A    between atoms: C13_14  and  C17_18 
REMARK    7  A    between atoms: C25_25  and  C27_27 
REMARK    8  A    between atoms: N31_31  and  C32_32 
REMARK    9  A    between atoms: C32_32  and  C33_33 
ROOT
HETATM    1  C1  Z34 A 500       3.786   5.865  21.631  1.00 33.01     0.199 A 
HETATM    2  C2  Z34 A 500       3.397   4.542  21.951  1.00 35.72     0.119 A 
HETATM    3  C3  Z34 A 500       4.292   3.485  21.637  1.00 32.60     0.199 A 
HETATM    4  C4  Z34 A 500       5.524   3.770  21.032  1.00 28.35     0.214 A 
HETATM    5  N5  Z34 A 500       5.837   5.025  20.764  1.00 26.32    -0.194 NA
HETATM    6  C6  Z34 A 500       5.047   6.077  21.034  1.00 28.67     0.214 A 
HETATM    7  F1  Z34 A 500       3.006   6.882  21.884  1.00 33.88    -0.199 F 
HETATM    8  F2  Z34 A 500       3.996   2.256  21.895  1.00 34.74    -0.199 F 
ENDROOT
BRANCH   4   9
HETATM    9  O2  Z34 A 500       6.329   2.784  20.735  1.00 24.97    -0.288 OA
BRANCH   9  10
HETATM   10  C21 Z34 A 500       6.823   2.298  19.601  1.00 26.73     0.102 A 
HETATM   11  C22 Z34 A 500       8.195   1.921  19.634  1.00 24.69     0.025 A 
HETATM   12  C23 Z34 A 500       8.815   1.403  18.482  1.00 24.68     0.002 A 
HETATM   13  C24 Z34 A 500       8.063   1.269  17.303  1.00 24.81     0.003 A 
HETATM   14  C25 Z34 A 500       6.689   1.643  17.267  1.00 28.62     0.035 A 
HETATM   15  C26 Z34 A 500       6.093   2.155  18.420  1.00 25.20     0.028 A 
BRANCH  14  16
HETATM   16  C27 Z34 A 500       5.936   1.495  16.105  1.00 30.28     0.135 A 
HETATM   17  N21 Z34 A 500       5.529   2.420  15.219  1.00 31.15    -0.330 N 
HETATM   18  C28 Z34 A 500       4.781   1.813  14.175  1.00 32.13     0.129 A 
HETATM   19  C30 Z34 A 500       5.769   3.819  15.241  1.00 32.81     0.127 C 
HETATM   20  C29 Z34 A 500       4.769   0.316  14.542  1.00 33.72     0.151 A 
HETATM   21  N22 Z34 A 500       5.511   0.279  15.734  1.00 33.16    -0.253 NA
ENDBRANCH  14  16
ENDBRANCH   9  10
ENDBRANCH   4   9
BRANCH   2  22
HETATM   22  N31 Z34 A 500       2.181   4.297  22.540  1.00 39.62    -0.334 N 
HETATM   23  C36 Z34 A 500       1.041   3.962  21.714  1.00 39.25     0.126 C 
BRANCH  22  24
HETATM   24  C32 Z34 A 500       2.042   4.364  23.997  1.00 46.25     0.201 C 
BRANCH  24  25
HETATM   25  C33 Z34 A 500       1.603   3.105  24.708  1.00 52.25     0.209 C 
HETATM   26  O34 Z34 A 500       2.378   2.117  24.904  1.00 55.74    -0.646 OA
HETATM   27  O35 Z34 A 500       0.324   3.006  25.183  1.00 53.23    -0.646 OA
ENDBRANCH  24  25
ENDBRANCH  22  24
ENDBRANCH   2  22
BRANCH   6  28
HETATM   28  O1  Z34 A 500       5.468   7.295  20.720  1.00 23.64    -0.284 OA
BRANCH  28  29
HETATM   29  C11 Z34 A 500       6.467   7.957  21.304  1.00 19.65     0.141 A 
HETATM   30  C12 Z34 A 500       6.486   7.966  22.701  1.00 17.96     0.031 A 
HETATM   31  C13 Z34 A 500       7.506   8.630  23.424  1.00 17.45     0.042 A 
HETATM   32  C14 Z34 A 500       8.527   9.298  22.682  1.00 14.40     0.007 A 
HETATM   33  C15 Z34 A 500       8.514   9.285  21.277  1.00 14.00     0.044 A 
HETATM   34  C16 Z34 A 500       7.482   8.608  20.584  1.00 18.90     0.218 A 
HETATM   35  O11 Z34 A 500       7.480   8.594  19.301  1.00 17.07    -0.284 OA
BRANCH  31  36
HETATM   36  C17 Z34 A 500       7.482   8.619  24.815  1.00 14.31     0.205 C 
HETATM   37  N11 Z34 A 500       6.321   8.633  25.504  1.00 15.76    -0.125 N 
HETATM   38  N12 Z34 A 500       8.581   8.558  25.555  1.00 14.20    -0.125 N 
ENDBRANCH  31  36
ENDBRANCH  28  29
ENDBRANCH   6  28
TORSDOF 9
ENDMDL
