MODEL 1
REMARK VINA RESULT:      -9.0      0.000      0.000
REMARK  9 active torsions:
REMARK  status: ('A' for Active; 'I' for Inactive)
REMARK    1  A    between atoms: O1_2  and  C11_9 
REMARK    2  A    between atoms: O1_2  and  C6_8 
REMARK    3  A    between atoms: C2_3  and  N31_31 
REMARK    4  A    between atoms: O2_4  and  C21_19 
REMARK    5  A    between atoms: O2_4  and  C4_6 
REMARK    6  A    between atoms: C13_14  and  C17_18 
REMARK    7  A    between atoms: C25_25  and  C27_27 
REMARK    8  A    between atoms: N31_31  and  C32_32 
REMARK    9  A    between atoms: C32_32  and  C33_33 
ROOT
HETATM    1  C1  Z34 A 500       4.424   9.008  23.770  1.00 33.01     0.199 A 
HETATM    2  C2  Z34 A 500       3.753   8.321  22.731  1.00 35.72     0.119 A 
HETATM    3  C3  Z34 A 500       4.519   7.479  21.879  1.00 32.60     0.199 A 
HETATM    4  C4  Z34 A 500       5.898   7.346  22.087  1.00 28.35     0.214 A 
HETATM    5  N5  Z34 A 500       6.469   8.007  23.079  1.00 26.32    -0.194 NA
HETATM    6  C6  Z34 A 500       5.814   8.816  23.926  1.00 28.67     0.214 A 
HETATM    7  F1  Z34 A 500       3.782   9.804  24.582  1.00 33.88    -0.199 F 
HETATM    8  F2  Z34 A 500       3.970   6.831  20.908  1.00 34.74    -0.199 F 
ENDROOT
BRANCH   4   9
HETATM    9  O2  Z34 A 500       6.591   6.582  21.283  1.00 24.97    -0.288 OA
BRANCH   9  10
HETATM   10  C21 Z34 A 500       6.560   5.290  20.975  1.00 26.73     0.102 A 
HETATM   11  C22 Z34 A 500       6.129   4.416  22.012  1.00 24.69     0.025 A 
HETATM   12  C23 Z34 A 500       6.069   3.027  21.788  1.00 24.68     0.002 A 
HETATM   13  C24 Z34 A 500       6.445   2.520  20.534  1.00 24.81     0.003 A 
HETATM   14  C25 Z34 A 500       6.875   3.393  19.493  1.00 28.62     0.035 A 
HETATM   15  C26 Z34 A 500       6.927   4.767  19.734  1.00 25.20     0.028 A 
BRANCH  14  16
HETATM   16  C27 Z34 A 500       7.231   2.896  18.242  1.00 30.28     0.135 A 
HETATM   17  N21 Z34 A 500       8.358   2.279  17.850  1.00 31.15    -0.330 N 
HETATM   18  C28 Z34 A 500       8.286   1.938  16.473  1.00 32.13     0.129 A 
HETATM   19  C30 Z34 A 500       9.503   1.967  18.629  1.00 32.81     0.127 C 
HETATM   20  C29 Z34 A 500       6.900   2.450  16.030  1.00 33.72     0.151 A 
HETATM   21  N22 Z34 A 500       6.379   3.003  17.212  1.00 33.16    -0.253 NA
ENDBRANCH  14  16
ENDBRANCH   9  10
ENDBRANCH   4   9
BRANCH   2  22
HETATM   22  N31 Z34 A 500       2.401   8.477  22.553  1.00 39.62    -0.334 N 
HETATM   23  C36 Z34 A 500       1.902   9.634  21.841  1.00 39.25     0.126 C 
BRANCH  22  24
HETATM   24  C32 Z34 A 500       1.470   7.471  23.071  1.00 46.25     0.201 C 
BRANCH  24  25
HETATM   25  C33 Z34 A 500       1.816   6.825  24.393  1.00 52.25     0.209 C 
HETATM   26  O34 Z34 A 500       2.307   5.656  24.482  1.00 55.74    -0.646 OA
HETATM   27  O35 Z34 A 500       1.616   7.514  25.557  1.00 53.23    -0.646 OA
ENDBRANCH  24  25
ENDBRANCH  22  24
ENDBRANCH   2  22
BRANCH   6  28
HETATM   28  O1  Z34 A 500       6.494   9.427  24.888  1.00 23.64    -0.284 OA
BRANCH  28  29
HETATM   29  C11 Z34 A 500       7.812   9.370  25.076  1.00 19.65     0.141 A 
HETATM   30  C12 Z34 A 500       8.265   8.569  26.127  1.00 17.96     0.031 A 
HETATM   31  C13 Z34 A 500       9.645   8.430  26.411  1.00 17.45     0.042 A 
HETATM   32  C14 Z34 A 500      10.574   9.136  25.588  1.00 14.40     0.007 A 
HETATM   33  C15 Z34 A 500      10.121   9.937  24.526  1.00 14.00     0.044 A 
HETATM   34  C16 Z34 A 500       8.734  10.052  24.266  1.00 18.90     0.218 A 
HETATM   35  O11 Z34 A 500       8.328  10.781  23.290  1.00 17.07    -0.284 OA
BRANCH  31  36
HETATM   36  C17 Z34 A 500      10.051   7.626  27.472  1.00 14.31     0.205 C 
HETATM   37  N11 Z34 A 500       9.201   6.772  28.080  1.00 15.76    -0.125 N 
HETATM   38  N12 Z34 A 500      11.295   7.614  27.932  1.00 14.20    -0.125 N 
ENDBRANCH  31  36
ENDBRANCH  28  29
ENDBRANCH   6  28
TORSDOF 9
ENDMDL
