MODEL 1
REMARK VINA RESULT:      -7.8      0.000      0.000
REMARK  9 active torsions:
REMARK  status: ('A' for Active; 'I' for Inactive)
REMARK    1  A    between atoms: O1_2  and  C11_9 
REMARK    2  A    between atoms: O1_2  and  C6_8 
REMARK    3  A    between atoms: C2_3  and  N31_31 
REMARK    4  A    between atoms: O2_4  and  C21_19 
REMARK    5  A    between atoms: O2_4  and  C4_6 
REMARK    6  A    between atoms: C13_14  and  C17_18 
REMARK    7  A    between atoms: C25_25  and  C27_27 
REMARK    8  A    between atoms: N31_31  and  C32_32 
REMARK    9  A    between atoms: C32_32  and  C33_33 
ROOT
HETATM    1  C1  Z34 A 500      35.862   3.345  17.670  1.00 33.01     0.199 A 
HETATM    2  C2  Z34 A 500      34.709   4.015  17.196  1.00 35.72     0.119 A 
HETATM    3  C3  Z34 A 500      34.384   5.276  17.766  1.00 32.60     0.199 A 
HETATM    4  C4  Z34 A 500      35.202   5.822  18.765  1.00 28.35     0.214 A 
HETATM    5  N5  Z34 A 500      36.271   5.153  19.161  1.00 26.32    -0.194 NA
HETATM    6  C6  Z34 A 500      36.645   3.962  18.669  1.00 28.67     0.214 A 
HETATM    7  F1  Z34 A 500      36.212   2.179  17.196  1.00 33.88    -0.199 F 
HETATM    8  F2  Z34 A 500      33.343   5.936  17.386  1.00 34.74    -0.199 F 
ENDROOT
BRANCH   4   9
HETATM    9  O2  Z34 A 500      34.879   6.974  19.291  1.00 24.97    -0.288 OA
BRANCH   9  10
HETATM   10  C21 Z34 A 500      35.180   8.239  19.013  1.00 26.73     0.102 A 
HETATM   11  C22 Z34 A 500      34.772   8.705  17.732  1.00 24.69     0.025 A 
HETATM   12  C23 Z34 A 500      35.050  10.027  17.339  1.00 24.68     0.002 A 
HETATM   13  C24 Z34 A 500      35.739  10.873  18.224  1.00 24.81     0.003 A 
HETATM   14  C25 Z34 A 500      36.146  10.410  19.508  1.00 28.62     0.035 A 
HETATM   15  C26 Z34 A 500      35.861   9.095  19.879  1.00 25.20     0.028 A 
BRANCH  14  16
HETATM   16  C27 Z34 A 500      36.813  11.251  20.395  1.00 30.28     0.135 A 
HETATM   17  N21 Z34 A 500      38.130  11.461  20.557  1.00 31.15    -0.330 N 
HETATM   18  C28 Z34 A 500      38.359  12.415  21.585  1.00 32.13     0.129 A 
HETATM   19  C30 Z34 A 500      39.207  10.865  19.849  1.00 32.81     0.127 C 
HETATM   20  C29 Z34 A 500      36.945  12.791  22.071  1.00 33.72     0.151 A 
HETATM   21  N22 Z34 A 500      36.114  12.006  21.254  1.00 33.16    -0.253 NA
ENDBRANCH  14  16
ENDBRANCH   9  10
ENDBRANCH   4   9
BRANCH   2  22
HETATM   22  N31 Z34 A 500      33.927   3.450  16.220  1.00 39.62    -0.334 N 
HETATM   23  C36 Z34 A 500      34.437   3.338  14.871  1.00 39.25     0.126 C 
BRANCH  22  24
HETATM   24  C32 Z34 A 500      32.587   2.954  16.546  1.00 46.25     0.201 C 
BRANCH  24  25
HETATM   25  C33 Z34 A 500      31.415   3.645  15.888  1.00 52.25     0.209 C 
HETATM   26  O34 Z34 A 500      30.884   4.700  16.356  1.00 55.74    -0.646 OA
HETATM   27  O35 Z34 A 500      30.895   3.139  14.728  1.00 53.23    -0.646 OA
ENDBRANCH  24  25
ENDBRANCH  22  24
ENDBRANCH   2  22
BRANCH   6  28
HETATM   28  O1  Z34 A 500      37.741   3.384  19.145  1.00 23.64    -0.284 OA
BRANCH  28  29
HETATM   29  C11 Z34 A 500      38.648   3.953  19.939  1.00 19.65     0.141 A 
HETATM   30  C12 Z34 A 500      38.654   3.553  21.278  1.00 17.96     0.031 A 
HETATM   31  C13 Z34 A 500      39.579   4.086  22.206  1.00 17.45     0.042 A 
HETATM   32  C14 Z34 A 500      40.518   5.055  21.736  1.00 14.40     0.007 A 
HETATM   33  C15 Z34 A 500      40.519   5.453  20.389  1.00 14.00     0.044 A 
HETATM   34  C16 Z34 A 500      39.582   4.898  19.485  1.00 18.90     0.218 A 
HETATM   35  O11 Z34 A 500      39.593   5.262  18.254  1.00 17.07    -0.284 OA
BRANCH  31  36
HETATM   36  C17 Z34 A 500      39.546   3.664  23.531  1.00 14.31     0.205 C 
HETATM   37  N11 Z34 A 500      40.306   2.638  23.967  1.00 15.76    -0.125 N 
HETATM   38  N12 Z34 A 500      38.803   4.254  24.458  1.00 14.20    -0.125 N 
ENDBRANCH  31  36
ENDBRANCH  28  29
ENDBRANCH   6  28
TORSDOF 9
ENDMDL
