MODEL 1
REMARK VINA RESULT:      -7.4      0.000      0.000
REMARK  9 active torsions:
REMARK  status: ('A' for Active; 'I' for Inactive)
REMARK    1  A    between atoms: O1_2  and  C11_9 
REMARK    2  A    between atoms: O1_2  and  C6_8 
REMARK    3  A    between atoms: C2_3  and  N31_31 
REMARK    4  A    between atoms: O2_4  and  C21_19 
REMARK    5  A    between atoms: O2_4  and  C4_6 
REMARK    6  A    between atoms: C13_14  and  C17_18 
REMARK    7  A    between atoms: C25_25  and  C27_27 
REMARK    8  A    between atoms: N31_31  and  C32_32 
REMARK    9  A    between atoms: C32_32  and  C33_33 
ROOT
HETATM    1  C1  Z34 A 500      29.628   6.788  41.372  1.00 33.01     0.199 A 
HETATM    2  C2  Z34 A 500      28.407   6.241  40.911  1.00 35.72     0.119 A 
HETATM    3  C3  Z34 A 500      27.795   6.832  39.772  1.00 32.60     0.199 A 
HETATM    4  C4  Z34 A 500      28.406   7.921  39.138  1.00 28.35     0.214 A 
HETATM    5  N5  Z34 A 500      29.551   8.384  39.609  1.00 26.32    -0.194 NA
HETATM    6  C6  Z34 A 500      30.191   7.879  40.675  1.00 28.67     0.214 A 
HETATM    7  F1  Z34 A 500      30.238   6.299  42.418  1.00 33.88    -0.199 F 
HETATM    8  F2  Z34 A 500      26.677   6.387  39.305  1.00 34.74    -0.199 F 
ENDROOT
BRANCH   4   9
HETATM    9  O2  Z34 A 500      27.821   8.464  38.102  1.00 24.97    -0.288 OA
BRANCH   9  10
HETATM   10  C21 Z34 A 500      26.947   9.452  37.941  1.00 26.73     0.102 A 
HETATM   11  C22 Z34 A 500      26.221   9.442  36.717  1.00 24.69     0.025 A 
HETATM   12  C23 Z34 A 500      25.277  10.450  36.446  1.00 24.68     0.002 A 
HETATM   13  C24 Z34 A 500      25.068  11.464  37.395  1.00 24.81     0.003 A 
HETATM   14  C25 Z34 A 500      25.793  11.476  38.622  1.00 28.62     0.035 A 
HETATM   15  C26 Z34 A 500      26.724  10.467  38.872  1.00 25.20     0.028 A 
BRANCH  14  16
HETATM   16  C27 Z34 A 500      25.576  12.470  39.573  1.00 30.28     0.135 A 
HETATM   17  N21 Z34 A 500      25.097  12.374  40.824  1.00 31.15    -0.330 N 
HETATM   18  C28 Z34 A 500      25.050  13.654  41.438  1.00 32.13     0.129 A 
HETATM   19  C30 Z34 A 500      24.679  11.207  41.516  1.00 32.81     0.127 C 
HETATM   20  C29 Z34 A 500      25.585  14.612  40.354  1.00 33.72     0.151 A 
HETATM   21  N22 Z34 A 500      25.864  13.747  39.283  1.00 33.16    -0.253 NA
ENDBRANCH  14  16
ENDBRANCH   9  10
ENDBRANCH   4   9
BRANCH   2  22
HETATM   22  N31 Z34 A 500      27.833   5.176  41.558  1.00 39.62    -0.334 N 
HETATM   23  C36 Z34 A 500      26.561   5.345  42.227  1.00 39.25     0.126 C 
BRANCH  22  24
HETATM   24  C32 Z34 A 500      28.500   3.871  41.562  1.00 46.25     0.201 C 
BRANCH  24  25
HETATM   25  C33 Z34 A 500      29.339   3.520  40.354  1.00 52.25     0.209 C 
HETATM   26  O34 Z34 A 500      28.834   3.187  39.237  1.00 55.74    -0.646 OA
HETATM   27  O35 Z34 A 500      30.703   3.572  40.439  1.00 53.23    -0.646 OA
ENDBRANCH  24  25
ENDBRANCH  22  24
ENDBRANCH   2  22
BRANCH   6  28
HETATM   28  O1  Z34 A 500      31.338   8.427  41.057  1.00 23.64    -0.284 OA
BRANCH  28  29
HETATM   29  C11 Z34 A 500      32.533   8.213  40.506  1.00 19.65     0.141 A 
HETATM   30  C12 Z34 A 500      32.935   6.882  40.367  1.00 17.96     0.031 A 
HETATM   31  C13 Z34 A 500      34.180   6.541  39.788  1.00 17.45     0.042 A 
HETATM   32  C14 Z34 A 500      35.026   7.602  39.343  1.00 14.40     0.007 A 
HETATM   33  C15 Z34 A 500      34.621   8.941  39.474  1.00 14.00     0.044 A 
HETATM   34  C16 Z34 A 500      33.367   9.249  40.055  1.00 18.90     0.218 A 
HETATM   35  O11 Z34 A 500      33.001  10.474  40.166  1.00 17.07    -0.284 OA
BRANCH  31  36
HETATM   36  C17 Z34 A 500      34.543   5.203  39.676  1.00 14.31     0.205 C 
HETATM   37  N11 Z34 A 500      35.370   4.773  38.698  1.00 15.76    -0.125 N 
HETATM   38  N12 Z34 A 500      34.141   4.271  40.530  1.00 14.20    -0.125 N 
ENDBRANCH  31  36
ENDBRANCH  28  29
ENDBRANCH   6  28
TORSDOF 9
ENDMDL
