MODEL 1
REMARK VINA RESULT:      -7.6      0.000      0.000
REMARK  9 active torsions:
REMARK  status: ('A' for Active; 'I' for Inactive)
REMARK    1  A    between atoms: O1_2  and  C11_9 
REMARK    2  A    between atoms: O1_2  and  C6_8 
REMARK    3  A    between atoms: C2_3  and  N31_31 
REMARK    4  A    between atoms: O2_4  and  C21_19 
REMARK    5  A    between atoms: O2_4  and  C4_6 
REMARK    6  A    between atoms: C13_14  and  C17_18 
REMARK    7  A    between atoms: C25_25  and  C27_27 
REMARK    8  A    between atoms: N31_31  and  C32_32 
REMARK    9  A    between atoms: C32_32  and  C33_33 
ROOT
HETATM    1  C1  Z34 A 500      34.082  20.650  17.621  1.00 33.01     0.199 A 
HETATM    2  C2  Z34 A 500      34.547  20.217  16.357  1.00 35.72     0.119 A 
HETATM    3  C3  Z34 A 500      35.065  18.898  16.249  1.00 32.60     0.199 A 
HETATM    4  C4  Z34 A 500      35.098  18.067  17.377  1.00 28.35     0.214 A 
HETATM    5  N5  Z34 A 500      34.642  18.523  18.530  1.00 26.32    -0.194 NA
HETATM    6  C6  Z34 A 500      34.135  19.754  18.710  1.00 28.67     0.214 A 
HETATM    7  F1  Z34 A 500      33.603  21.854  17.792  1.00 33.88    -0.199 F 
HETATM    8  F2  Z34 A 500      35.513  18.443  15.128  1.00 34.74    -0.199 F 
ENDROOT
BRANCH   4   9
HETATM    9  O2  Z34 A 500      35.594  16.862  17.264  1.00 24.97    -0.288 OA
BRANCH   9  10
HETATM   10  C21 Z34 A 500      35.137  15.642  17.525  1.00 26.73     0.102 A 
HETATM   11  C22 Z34 A 500      33.745  15.442  17.307  1.00 24.69     0.025 A 
HETATM   12  C23 Z34 A 500      33.162  14.187  17.562  1.00 24.68     0.002 A 
HETATM   13  C24 Z34 A 500      33.970  13.141  18.037  1.00 24.81     0.003 A 
HETATM   14  C25 Z34 A 500      35.365  13.338  18.254  1.00 28.62     0.035 A 
HETATM   15  C26 Z34 A 500      35.924  14.590  17.995  1.00 25.20     0.028 A 
BRANCH  14  16
HETATM   16  C27 Z34 A 500      36.173  12.299  18.708  1.00 30.28     0.135 A 
HETATM   17  N21 Z34 A 500      36.557  11.990  19.958  1.00 31.15    -0.330 N 
HETATM   18  C28 Z34 A 500      37.384  10.835  19.953  1.00 32.13     0.129 A 
HETATM   19  C30 Z34 A 500      36.229  12.659  21.166  1.00 32.81     0.127 C 
HETATM   20  C29 Z34 A 500      37.476  10.443  18.464  1.00 33.72     0.151 A 
HETATM   21  N22 Z34 A 500      36.689  11.422  17.834  1.00 33.16    -0.253 NA
ENDBRANCH  14  16
ENDBRANCH   9  10
ENDBRANCH   4   9
BRANCH   2  22
HETATM   22  N31 Z34 A 500      34.505  21.058  15.274  1.00 39.62    -0.334 N 
HETATM   23  C36 Z34 A 500      35.698  21.773  14.875  1.00 39.25     0.126 C 
BRANCH  22  24
HETATM   24  C32 Z34 A 500      33.259  21.222  14.518  1.00 46.25     0.201 C 
BRANCH  24  25
HETATM   25  C33 Z34 A 500      32.610  22.587  14.545  1.00 52.25     0.209 C 
HETATM   26  O34 Z34 A 500      31.879  22.985  15.505  1.00 55.74    -0.646 OA
HETATM   27  O35 Z34 A 500      32.816  23.455  13.508  1.00 53.23    -0.646 OA
ENDBRANCH  24  25
ENDBRANCH  22  24
ENDBRANCH   2  22
BRANCH   6  28
HETATM   28  O1  Z34 A 500      33.705  20.102  19.916  1.00 23.64    -0.284 OA
BRANCH  28  29
HETATM   29  C11 Z34 A 500      34.438  20.654  20.883  1.00 19.65     0.141 A 
HETATM   30  C12 Z34 A 500      35.512  21.452  20.483  1.00 17.96     0.031 A 
HETATM   31  C13 Z34 A 500      36.350  22.093  21.427  1.00 17.45     0.042 A 
HETATM   32  C14 Z34 A 500      36.068  21.902  22.814  1.00 14.40     0.007 A 
HETATM   33  C15 Z34 A 500      34.983  21.106  23.218  1.00 14.00     0.044 A 
HETATM   34  C16 Z34 A 500      34.162  20.481  22.249  1.00 18.90     0.218 A 
HETATM   35  O11 Z34 A 500      33.169  19.760  22.626  1.00 17.07    -0.284 OA
BRANCH  31  36
HETATM   36  C17 Z34 A 500      37.413  22.873  20.985  1.00 14.31     0.205 C 
HETATM   37  N11 Z34 A 500      38.220  22.468  19.980  1.00 15.76    -0.125 N 
HETATM   38  N12 Z34 A 500      37.687  24.071  21.484  1.00 14.20    -0.125 N 
ENDBRANCH  31  36
ENDBRANCH  28  29
ENDBRANCH   6  28
TORSDOF 9
ENDMDL
