MODEL 1
REMARK VINA RESULT:    -6.373      0.000      0.000
REMARK INTER + INTRA:          -8.335
REMARK INTER:                  -8.050
REMARK INTRA:                  -0.286
REMARK UNBOUND:                -0.286
REMARK  6 active torsions:
REMARK  status: ('A' for Active; 'I' for Inactive)
REMARK    1  A    between atoms: C3_3  and  N1_4 
REMARK    2  A    between atoms: C5_6  and  C17_22 
REMARK    3  A    between atoms: C6_7  and  O1_8 
REMARK    4  A    between atoms: C10_12  and  N2_15 
REMARK    5  A    between atoms: C17_22  and  O2_23 
REMARK    6  A    between atoms: C17_22  and  O3_24 
ROOT
HETATM    1  N1  CIP     1      11.533 -24.337  -5.719  1.00  0.00     0.099 N 
HETATM    2  C4  CIP     1      12.651 -23.960  -4.805  1.00  0.00     0.285 C 
HETATM    3  C5  CIP     1      14.005 -23.605  -5.495  1.00  0.00     0.098 C 
HETATM    4  C6  CIP     1      13.836 -22.606  -6.688  1.00  0.00     0.135 C 
HETATM    5  C7  CIP     1      12.351 -22.388  -7.051  1.00  0.00     0.051 C 
HETATM    6  C8  CIP     1      12.156 -21.571  -8.357  1.00  0.00     0.049 C 
HETATM    7  C9  CIP     1      11.731 -22.436  -9.552  1.00  0.00     0.204 C 
HETATM    8  C10 CIP     1      10.424 -23.263  -9.279  1.00  0.00     0.258 C 
HETATM    9  C11 CIP     1      10.275 -23.589  -7.756  1.00  0.00     0.075 C 
HETATM   10  C12 CIP     1      11.651 -23.768  -7.088  1.00  0.00     0.232 C 
HETATM   11  F1  CIP     1      11.610 -21.610 -10.656  1.00  0.00    -0.247 F 
ENDROOT
BRANCH   8  12
HETATM   12  N2  CIP     1       9.227 -22.592  -9.880  1.00  0.00     0.099 N 
HETATM   13  C13 CIP     1       8.298 -23.576 -10.511  1.00  0.00     0.302 C 
HETATM   14  C14 CIP     1       6.993 -23.763  -9.722  1.00  0.00     0.299 C 
HETATM   15  N3  CIP     1       6.248 -22.501  -9.600  1.00  0.00     0.086 N 
HETATM   16  C15 CIP     1       7.115 -21.314  -9.492  1.00  0.00     0.299 C 
HETATM   17  H13 CIP     1       5.652 -22.561  -8.740  1.00  0.00     0.315 HD
HETATM   18  C16 CIP     1       8.516 -21.659  -8.967  1.00  0.00     0.302 C 
ENDBRANCH   8  12
BRANCH   1  19
HETATM   19  C3  CIP     1      11.352 -25.802  -5.757  1.00  0.00     0.223 A 
HETATM   20  C1  CIP     1       9.892 -26.237  -5.738  1.00  0.00     0.038 A 
HETATM   21  C2  CIP     1      10.739 -26.393  -4.492  1.00  0.00     0.038 A 
ENDBRANCH   1  19
BRANCH   4  22
HETATM   22  O1  CIP     1      14.459 -21.376  -6.401  1.00  0.00    -0.395 OA
HETATM   23  H4  CIP     1      13.743 -20.715  -6.210  1.00  0.00     0.210 HD
ENDBRANCH   4  22
BRANCH   3  24
HETATM   24  C17 CIP     1      14.873 -24.835  -5.876  1.00  0.00     0.262 C 
BRANCH  24  25
HETATM   25  O2  CIP     1      16.145 -24.436  -6.325  1.00  0.00    -0.371 OA
HETATM   26  H12 CIP     1      16.822 -24.931  -5.797  1.00  0.00     0.212 HD
ENDBRANCH  24  25
BRANCH  24  27
HETATM   27  O3  CIP     1      14.978 -25.744  -4.812  1.00  0.00    -0.371 OA
HETATM   28  H18 CIP     1      15.945 -25.829  -4.608  1.00  0.00     0.212 HD
ENDBRANCH  24  27
ENDBRANCH   3  24
TORSDOF 6
ENDMDL
