MODEL 1
REMARK VINA RESULT:    -7.407      0.000      0.000
REMARK INTER + INTRA:         -14.479
REMARK INTER:                 -12.386
REMARK INTRA:                  -2.093
REMARK UNBOUND:                -2.093
REMARK  16 active torsions:
REMARK  status: ('A' for Active; 'I' for Inactive)
REMARK    1  A    between atoms: C3_3  and  C20_33 
REMARK    2  A    between atoms: C5_7  and  N2_10 
REMARK    3  A    between atoms: C6_8  and  O1_9 
REMARK    4  A    between atoms: N2_10  and  C7_11 
REMARK    5  A    between atoms: C7_11  and  O2_12 
REMARK    6  A    between atoms: C7_11  and  C8_13 
REMARK    7  A    between atoms: C8_13  and  C9_14 
REMARK    8  A    between atoms: C8_13  and  N3_20 
REMARK    9  A    between atoms: N3_20  and  C15_21 
REMARK   10  A    between atoms: C15_21  and  O3_22 
REMARK   11  A    between atoms: C15_21  and  N4_23 
REMARK   12  A    between atoms: C18_27  and  O4_28 
REMARK   13  A    between atoms: S2_29  and  O5_30 
REMARK   14  A    between atoms: S2_29  and  O6_31 
REMARK   15  A    between atoms: C20_33  and  O7_34 
REMARK   16  A    between atoms: C20_33  and  O8_35 
ROOT
HETATM    1  C8  MEZ     1      10.686 -35.203   0.951  1.00  0.00     0.288 C 
ENDROOT
BRANCH   1   2
HETATM    2  C7  MEZ     1      10.175 -33.730   1.135  1.00  0.00     0.388 C 
BRANCH   2   3
HETATM    3  N2  MEZ     1       9.993 -33.038  -0.157  1.00  0.00     0.126 N 
HETATM    4  H7  MEZ     1      10.150 -33.702  -0.950  1.00  0.00     0.320 HD
BRANCH   3   5
HETATM    5  C5  MEZ     1      10.773 -31.792  -0.304  1.00  0.00     0.325 A 
HETATM    6  C4  MEZ     1      10.860 -31.190  -1.714  1.00  0.00     0.326 A 
HETATM    7  N1  MEZ     1      10.007 -30.044  -1.375  1.00  0.00     0.146 N 
HETATM    8  S1  MEZ     1      10.184 -32.153  -3.111  1.00  0.00    -0.119 SA
HETATM    9  C3  MEZ     1       8.754 -30.118  -2.163  1.00  0.00     0.299 C 
HETATM   10  C6  MEZ     1       9.955 -30.546   0.020  1.00  0.00     0.395 A 
HETATM   11  C2  MEZ     1       9.087 -30.776  -3.530  1.00  0.00     0.039 C 
HETATM   12  C1  MEZ     1       9.839 -29.838  -4.496  1.00  0.00     0.029 C 
HETATM   13  C21 MEZ     1       7.845 -31.358  -4.231  1.00  0.00     0.029 C 
BRANCH   9  14
HETATM   14  C20 MEZ     1       8.142 -28.696  -2.255  1.00  0.00     0.289 C 
BRANCH  14  15
HETATM   15  O7  MEZ     1       9.071 -27.747  -1.795  1.00  0.00    -0.369 OA
HETATM   16  H18 MEZ     1       8.552 -27.056  -1.306  1.00  0.00     0.212 HD
ENDBRANCH  14  15
BRANCH  14  17
HETATM   17  O8  MEZ     1       6.957 -28.597  -1.509  1.00  0.00    -0.369 OA
HETATM   18  H22 MEZ     1       7.055 -29.201  -0.726  1.00  0.00     0.212 HD
ENDBRANCH  14  17
ENDBRANCH   9  14
BRANCH  10  19
HETATM   19  O1  MEZ     1       8.664 -30.833   0.500  1.00  0.00    -0.366 OA
HETATM   20  H2  MEZ     1       8.033 -30.538  -0.206  1.00  0.00     0.212 HD
ENDBRANCH  10  19
ENDBRANCH   3   5
ENDBRANCH   2   3
BRANCH   2  21
HETATM   21  O2  MEZ     1       8.994 -33.665   1.901  1.00  0.00    -0.366 OA
HETATM   22  H4  MEZ     1       8.899 -32.741   2.248  1.00  0.00     0.212 HD
ENDBRANCH   2  21
ENDBRANCH   1   2
BRANCH   1  23
HETATM   23  C9  MEZ     1      10.136 -35.944  -0.310  1.00  0.00     0.023 C 
HETATM   24  C10 MEZ     1      11.213 -36.329  -1.346  1.00  0.00     0.007 C 
HETATM   25  C11 MEZ     1      10.574 -36.764  -2.681  1.00  0.00     0.000 C 
HETATM   26  C12 MEZ     1       9.204 -37.454  -2.508  1.00  0.00     0.000 C 
HETATM   27  C13 MEZ     1       9.084 -38.155  -1.148  1.00  0.00     0.000 C 
HETATM   28  C14 MEZ     1       9.229 -37.161   0.025  1.00  0.00     0.007 C 
ENDBRANCH   1  23
BRANCH   1  29
HETATM   29  N3  MEZ     1      12.168 -35.255   0.897  1.00  0.00     0.152 N 
HETATM   30  H14 MEZ     1      12.609 -34.316   0.753  1.00  0.00     0.322 HD
BRANCH  29  31
HETATM   31  C15 MEZ     1      12.767 -35.886   2.085  1.00  0.00     0.600 C 
BRANCH  31  32
HETATM   32  O3  MEZ     1      13.432 -34.907   2.848  1.00  0.00    -0.345 OA
HETATM   33  H12 MEZ     1      14.113 -35.373   3.399  1.00  0.00     0.214 HD
ENDBRANCH  31  32
BRANCH  31  34
HETATM   34  N4  MEZ     1      13.748 -36.902   1.651  1.00  0.00     0.198 N 
HETATM   35  C16 MEZ     1      14.660 -37.306   2.715  1.00  0.00     0.304 C 
HETATM   36  C17 MEZ     1      15.911 -37.781   2.006  1.00  0.00     0.168 C 
HETATM   37  N5  MEZ     1      15.866 -37.248   0.651  1.00  0.00    -0.280 N 
HETATM   38  C18 MEZ     1      14.630 -36.480   0.551  1.00  0.00     0.480 C 
HETATM   39  S2  MEZ     1      17.110 -37.548   0.013  1.00  0.00     0.045 S 
HETATM   40  C19 MEZ     1      15.962 -38.987  -1.428  1.00  0.00     0.150 C 
BRANCH  38  41
HETATM   41  O4  MEZ     1      14.950 -35.112   0.629  1.00  0.00    -0.352 OA
HETATM   42  H14 MEZ     1      15.860 -35.048   1.020  1.00  0.00     0.214 HD
ENDBRANCH  38  41
BRANCH  39  43
HETATM   43  O5  MEZ     1      16.937 -35.952  -2.055  1.00  0.00    -0.312 OA
HETATM   44  H15 MEZ     1      17.447 -36.367  -2.795  1.00  0.00     0.230 HD
ENDBRANCH  39  43
BRANCH  39  45
HETATM   45  O6  MEZ     1      18.074 -36.067  -0.083  1.00  0.00    -0.312 OA
HETATM   46  H16 MEZ     1      17.697 -35.203   0.218  1.00  0.00     0.230 HD
ENDBRANCH  39  45
ENDBRANCH  31  34
ENDBRANCH  29  31
ENDBRANCH   1  29
TORSDOF 16
ENDMDL
