MODEL 1
REMARK VINA RESULT:    -5.903      0.000      0.000
REMARK INTER + INTRA:          -7.515
REMARK INTER:                  -7.111
REMARK INTRA:                  -0.404
REMARK UNBOUND:                -0.404
REMARK  5 active torsions:
REMARK  status: ('A' for Active; 'I' for Inactive)
REMARK    1  A    between atoms: C2_2  and  N1_3 
REMARK    2  A    between atoms: C4_5  and  C12_15 
REMARK    3  A    between atoms: C5_6  and  O1_7 
REMARK    4  A    between atoms: C12_15  and  O2_16 
REMARK    5  A    between atoms: C12_15  and  O3_17 
ROOT
HETATM    1  N1  NDX     1      31.492 -36.805  -5.739  1.00  0.00     0.122 N 
HETATM    2  C3  NDX     1      30.443 -37.712  -5.232  1.00  0.00     0.287 C 
HETATM    3  C4  NDX     1      30.910 -39.174  -5.336  1.00  0.00     0.098 C 
HETATM    4  C5  NDX     1      31.213 -39.508  -6.818  1.00  0.00     0.136 C 
HETATM    5  C6  NDX     1      32.225 -38.500  -7.416  1.00  0.00     0.079 C 
HETATM    6  C7  NDX     1      31.768 -37.036  -7.181  1.00  0.00     0.460 C 
HETATM    7  N2  NDX     1      32.811 -36.100  -7.658  1.00  0.00     0.122 N 
HETATM    8  C8  NDX     1      33.427 -36.441  -8.961  1.00  0.00     0.219 C 
HETATM    9  C9  NDX     1      32.630 -37.494  -9.750  1.00  0.00     0.036 C 
HETATM   10  C10 NDX     1      32.456 -38.777  -8.925  1.00  0.00     0.013 C 
HETATM   11  C11 NDX     1      33.580 -35.162  -9.785  1.00  0.00     0.042 C 
HETATM   12  H7  NDX     1      33.579 -36.062  -6.944  1.00  0.00     0.319 HD
ENDROOT
BRANCH   3  13
HETATM   13  C12 NDX     1      29.868 -40.128  -4.693  1.00  0.00     0.262 C 
BRANCH  13  14
HETATM   14  O2  NDX     1      30.448 -41.360  -4.345  1.00  0.00    -0.371 OA
HETATM   15  H12 NDX     1      30.585 -41.876  -5.182  1.00  0.00     0.212 HD
ENDBRANCH  13  14
BRANCH  13  16
HETATM   16  O3  NDX     1      29.267 -39.539  -3.565  1.00  0.00    -0.371 OA
HETATM   17  H12 NDX     1      30.003 -39.198  -2.992  1.00  0.00     0.212 HD
ENDBRANCH  13  16
ENDBRANCH   3  13
BRANCH   4  18
HETATM   18  O1  NDX     1      31.691 -40.824  -6.956  1.00  0.00    -0.394 OA
HETATM   19  H4  NDX     1      31.667 -41.247  -6.057  1.00  0.00     0.210 HD
ENDBRANCH   4  18
BRANCH   1  20
HETATM   20  C2  NDX     1      31.203 -35.389  -5.394  1.00  0.00     0.271 C 
HETATM   21  C1  NDX     1      31.477 -35.020  -3.930  1.00  0.00     0.037 C 
ENDBRANCH   1  20
TORSDOF 5
ENDMDL
