MODEL 1
REMARK VINA RESULT:    -6.400      0.000      0.000
REMARK INTER + INTRA:         -15.742
REMARK INTER:                 -12.200
REMARK INTRA:                  -3.542
REMARK UNBOUND:                -3.542
REMARK  22 active torsions:
REMARK  status: ('A' for Active; 'I' for Inactive)
REMARK    1  A    between atoms: C2_2  and  N6_42 
REMARK    2  A    between atoms: C3_3  and  O13_41 
REMARK    3  A    between atoms: C4_4  and  O5_20 
REMARK    4  A    between atoms: C5_5  and  O1_8 
REMARK    5  A    between atoms: C6_6  and  N1_7 
REMARK    6  A    between atoms: O1_8  and  C7_9 
REMARK    7  A    between atoms: C8_10  and  N3_19 
REMARK    8  A    between atoms: C9_11  and  O4_18 
REMARK    9  A    between atoms: C10_12  and  O3_17 
REMARK   10  A    between atoms: C11_13  and  C12_15 
REMARK   11  A    between atoms: C12_15  and  N2_16 
REMARK   12  A    between atoms: O5_20  and  C13_21 
REMARK   13  A    between atoms: C14_22  and  O12_40 
REMARK   14  A    between atoms: C15_23  and  O8_28 
REMARK   15  A    between atoms: C16_24  and  C17_26 
REMARK   16  A    between atoms: C17_26  and  O7_27 
REMARK   17  A    between atoms: O8_28  and  C18_29 
REMARK   18  A    between atoms: C19_30  and  N5_39 
REMARK   19  A    between atoms: C20_31  and  O11_38 
REMARK   20  A    between atoms: C21_32  and  O10_37 
REMARK   21  A    between atoms: C22_33  and  C23_35 
REMARK   22  A    between atoms: C23_35  and  N4_36 
ROOT
HETATM    1  C1  NEO     1       4.060 -21.672  -9.510  1.00  0.00     0.076 C 
HETATM    2  C2  NEO     1       4.610 -22.967  -8.894  1.00  0.00     0.251 C 
HETATM    3  C3  NEO     1       5.699 -23.580  -9.802  1.00  0.00     0.182 C 
HETATM    4  C4  NEO     1       6.835 -22.564 -10.048  1.00  0.00     0.186 C 
HETATM    5  C5  NEO     1       6.290 -21.266 -10.684  1.00  0.00     0.189 C 
HETATM    6  C6  NEO     1       5.186 -20.652  -9.776  1.00  0.00     0.251 C 
ENDROOT
BRANCH   4   7
HETATM    7  O5  NEO     1       7.788 -23.144 -10.929  1.00  0.00    -0.348 OA
BRANCH   7   8
HETATM    8  C13 NEO     1       9.017 -23.415 -10.277  1.00  0.00     0.292 C 
HETATM    9  C14 NEO     1       9.081 -22.654  -8.962  1.00  0.00     0.205 C 
HETATM   10  C15 NEO     1      10.007 -23.516  -8.137  1.00  0.00     0.189 C 
HETATM   11  C16 NEO     1       9.718 -24.913  -8.706  1.00  0.00     0.180 C 
HETATM   12  O6  NEO     1       9.097 -24.791  -9.972  1.00  0.00    -0.348 OA
BRANCH   9  13
HETATM   13  O12 NEO     1       9.521 -21.322  -9.098  1.00  0.00    -0.388 OA
HETATM   14  H43 NEO     1      10.382 -21.315  -9.591  1.00  0.00     0.210 HD
ENDBRANCH   9  13
BRANCH  10  15
HETATM   15  O8  NEO     1      11.365 -23.198  -8.413  1.00  0.00    -0.348 OA
BRANCH  15  16
HETATM   16  C18 NEO     1      12.133 -23.125  -7.229  1.00  0.00     0.296 C 
HETATM   17  C19 NEO     1      13.631 -23.192  -7.610  1.00  0.00     0.303 C 
HETATM   18  C20 NEO     1      14.511 -23.229  -6.341  1.00  0.00     0.187 C 
HETATM   19  C21 NEO     1      13.984 -24.258  -5.317  1.00  0.00     0.179 C 
HETATM   20  C22 NEO     1      12.458 -24.084  -5.130  1.00  0.00     0.183 C 
HETATM   21  O9  NEO     1      11.796 -24.209  -6.376  1.00  0.00    -0.349 OA
BRANCH  17  22
HETATM   22  N5  NEO     1      13.925 -24.344  -8.474  1.00  0.00     0.090 N 
HETATM   23  H41 NEO     1      13.075 -24.618  -9.016  1.00  0.00     0.313 HD
HETATM   24  H42 NEO     1      14.655 -24.063  -9.169  1.00  0.00     0.313 HD
ENDBRANCH  17  22
BRANCH  18  25
HETATM   25  O11 NEO     1      14.536 -21.960  -5.740  1.00  0.00    -0.391 OA
HETATM   26  H40 NEO     1      14.900 -22.079  -4.825  1.00  0.00     0.210 HD
ENDBRANCH  18  25
BRANCH  19  27
HETATM   27  O10 NEO     1      14.268 -25.565  -5.748  1.00  0.00    -0.390 OA
HETATM   28  H39 NEO     1      13.400 -26.036  -5.827  1.00  0.00     0.210 HD
ENDBRANCH  19  27
BRANCH  20  29
HETATM   29  C23 NEO     1      11.861 -25.127  -4.160  1.00  0.00     0.301 C 
BRANCH  29  30
HETATM   30  N4  NEO     1      11.416 -26.342  -4.840  1.00  0.00     0.080 N 
HETATM   31  H37 NEO     1      10.908 -26.953  -4.161  1.00  0.00     0.312 HD
HETATM   32  H38 NEO     1      10.760 -26.092  -5.615  1.00  0.00     0.312 HD
ENDBRANCH  29  30
ENDBRANCH  20  29
ENDBRANCH  15  16
ENDBRANCH  10  15
BRANCH  11  33
HETATM   33  C17 NEO     1       8.830 -25.757  -7.773  1.00  0.00     0.198 C 
BRANCH  33  34
HETATM   34  O7  NEO     1       9.027 -25.403  -6.429  1.00  0.00    -0.398 OA
HETATM   35  H29 NEO     1       8.223 -25.702  -5.930  1.00  0.00     0.209 HD
ENDBRANCH  33  34
ENDBRANCH  11  33
ENDBRANCH   7   8
ENDBRANCH   4   7
BRANCH   3  36
HETATM   36  O13 NEO     1       6.221 -24.728  -9.181  1.00  0.00    -0.391 OA
HETATM   37  H44 NEO     1       6.820 -24.420  -8.451  1.00  0.00     0.210 HD
ENDBRANCH   3  36
BRANCH   5  38
HETATM   38  O1  NEO     1       7.386 -20.372 -10.801  1.00  0.00    -0.349 OA
BRANCH  38  39
HETATM   39  C7  NEO     1       7.615 -19.925 -12.134  1.00  0.00     0.296 C 
HETATM   40  C8  NEO     1       9.120 -19.711 -12.378  1.00  0.00     0.303 C 
HETATM   41  C9  NEO     1       9.634 -18.563 -11.488  1.00  0.00     0.187 C 
HETATM   42  C10 NEO     1       8.749 -17.309 -11.647  1.00  0.00     0.179 C 
HETATM   43  C11 NEO     1       7.255 -17.688 -11.474  1.00  0.00     0.183 C 
HETATM   44  O2  NEO     1       6.904 -18.722 -12.385  1.00  0.00    -0.349 OA
BRANCH  40  45
HETATM   45  N3  NEO     1       9.857 -20.946 -12.099  1.00  0.00     0.090 N 
HETATM   46  H21 NEO     1      10.830 -20.844 -12.471  1.00  0.00     0.313 HD
HETATM   47  H22 NEO     1       9.958 -21.039 -11.062  1.00  0.00     0.313 HD
ENDBRANCH  40  45
BRANCH  41  48
HETATM   48  O4  NEO     1      10.979 -18.266 -11.778  1.00  0.00    -0.391 OA
HETATM   49  H20 NEO     1      11.393 -17.907 -10.950  1.00  0.00     0.210 HD
ENDBRANCH  41  48
BRANCH  42  50
HETATM   50  O3  NEO     1       9.122 -16.363 -10.679  1.00  0.00    -0.390 OA
HETATM   51  H19 NEO     1       9.685 -16.836 -10.013  1.00  0.00     0.210 HD
ENDBRANCH  42  50
BRANCH  43  52
HETATM   52  C12 NEO     1       6.316 -16.493 -11.760  1.00  0.00     0.301 C 
BRANCH  52  53
HETATM   53  N2  NEO     1       6.044 -15.673 -10.578  1.00  0.00     0.080 N 
HETATM   54  H17 NEO     1       6.921 -15.545 -10.028  1.00  0.00     0.312 HD
HETATM   55  H18 NEO     1       5.332 -16.142  -9.972  1.00  0.00     0.312 HD
ENDBRANCH  52  53
ENDBRANCH  43  52
ENDBRANCH  38  39
ENDBRANCH   5  38
BRANCH   2  56
HETATM   56  N6  NEO     1       3.507 -23.907  -8.678  1.00  0.00     0.085 N 
HETATM   57  H45 NEO     1       3.188 -24.286  -9.600  1.00  0.00     0.313 HD
HETATM   58  H46 NEO     1       3.851 -24.718  -8.110  1.00  0.00     0.313 HD
ENDBRANCH   2  56
BRANCH   6  59
HETATM   59  N1  NEO     1       4.631 -19.437 -10.378  1.00  0.00     0.085 N 
HETATM   60  H8  NEO     1       3.810 -19.116  -9.814  1.00  0.00     0.313 HD
HETATM   61  H9  NEO     1       5.352 -18.680 -10.344  1.00  0.00     0.313 HD
ENDBRANCH   6  59
TORSDOF 22
ENDMDL
