MODEL 1
REMARK VINA RESULT:    -6.153      0.000      0.000
REMARK INTER + INTRA:          -8.399
REMARK INTER:                  -7.772
REMARK INTRA:                  -0.627
REMARK UNBOUND:                -0.627
REMARK  6 active torsions:
REMARK  status: ('A' for Active; 'I' for Inactive)
REMARK    1  A    between atoms: C2_2  and  N1_3 
REMARK    2  A    between atoms: C4_5  and  C16_21 
REMARK    3  A    between atoms: C5_6  and  O1_7 
REMARK    4  A    between atoms: C9_11  and  N2_14 
REMARK    5  A    between atoms: C16_21  and  O2_22 
REMARK    6  A    between atoms: C16_21  and  O3_23 
ROOT
HETATM    1  N1  NOR     1      12.120 -23.943  -5.584  1.00  0.00     0.093 N 
HETATM    2  C3  NOR     1      13.426 -23.597  -4.961  1.00  0.00     0.284 C 
HETATM    3  C4  NOR     1      14.656 -23.705  -5.910  1.00  0.00     0.098 C 
HETATM    4  C5  NOR     1      14.436 -23.008  -7.294  1.00  0.00     0.135 C 
HETATM    5  C6  NOR     1      12.980 -22.537  -7.471  1.00  0.00     0.051 C 
HETATM    6  C7  NOR     1      12.690 -21.999  -8.904  1.00  0.00     0.049 C 
HETATM    7  C8  NOR     1      11.755 -22.901  -9.731  1.00  0.00     0.204 C 
HETATM    8  C9  NOR     1      10.443 -23.295  -8.984  1.00  0.00     0.258 C 
HETATM    9  C10 NOR     1      10.594 -23.296  -7.436  1.00  0.00     0.075 C 
HETATM   10  C11 NOR     1      12.030 -23.682  -7.042  1.00  0.00     0.231 C 
HETATM   11  F1  NOR     1      11.476 -22.301 -10.948  1.00  0.00    -0.247 F 
ENDROOT
BRANCH   8  12
HETATM   12  N2  NOR     1       9.252 -22.550  -9.482  1.00  0.00     0.099 N 
HETATM   13  C12 NOR     1       8.012 -23.342  -9.367  1.00  0.00     0.302 C 
HETATM   14  C13 NOR     1       6.868 -22.624 -10.094  1.00  0.00     0.299 C 
HETATM   15  N3  NOR     1       6.670 -21.269  -9.564  1.00  0.00     0.086 N 
HETATM   16  C14 NOR     1       7.914 -20.492  -9.641  1.00  0.00     0.299 C 
HETATM   17  H13 NOR     1       6.378 -21.339  -8.560  1.00  0.00     0.315 HD
HETATM   18  C15 NOR     1       9.058 -21.203  -8.907  1.00  0.00     0.302 C 
ENDBRANCH   8  12
BRANCH   1  19
HETATM   19  C2  NOR     1      11.656 -25.298  -5.206  1.00  0.00     0.268 C 
HETATM   20  C1  NOR     1      11.728 -25.461  -3.693  1.00  0.00     0.037 C 
ENDBRANCH   1  19
BRANCH   4  21
HETATM   21  O1  NOR     1      15.292 -21.900  -7.414  1.00  0.00    -0.395 OA
HETATM   22  H4  NOR     1      15.599 -21.877  -8.359  1.00  0.00     0.210 HD
ENDBRANCH   4  21
BRANCH   3  23
HETATM   23  C16 NOR     1      15.177 -25.159  -6.047  1.00  0.00     0.262 C 
BRANCH  23  24
HETATM   24  O2  NOR     1      15.026 -25.838  -4.827  1.00  0.00    -0.371 OA
HETATM   25  H12 NOR     1      14.460 -25.264  -4.246  1.00  0.00     0.212 HD
ENDBRANCH  23  24
BRANCH  23  26
HETATM   26  O3  NOR     1      16.531 -25.167  -6.407  1.00  0.00    -0.371 OA
HETATM   27  H18 NOR     1      16.558 -25.194  -7.399  1.00  0.00     0.212 HD
ENDBRANCH  23  26
ENDBRANCH   3  23
TORSDOF 6
ENDMDL
