MODEL 1
REMARK VINA RESULT:    -6.707      0.000      0.000
REMARK INTER + INTRA:         -10.042
REMARK INTER:                  -9.451
REMARK INTRA:                  -0.591
REMARK UNBOUND:                -0.591
REMARK  9 active torsions:
REMARK  status: ('A' for Active; 'I' for Inactive)
REMARK    1  A    between atoms: C3_3  and  C15_20 
REMARK    2  A    between atoms: C5_7  and  N2_10 
REMARK    3  A    between atoms: C6_8  and  O1_9 
REMARK    4  A    between atoms: N2_10  and  C7_11 
REMARK    5  A    between atoms: C7_11  and  O2_12 
REMARK    6  A    between atoms: C7_11  and  C8_13 
REMARK    7  A    between atoms: C8_13  and  C9_14 
REMARK    8  A    between atoms: C15_20  and  O3_21 
REMARK    9  A    between atoms: C15_20  and  O4_22 
ROOT
HETATM    1  C1  PEN     1      -9.295 -53.481  -9.233  1.00  0.00     0.029 C 
HETATM    2  C2  PEN     1      -8.473 -52.408  -8.481  1.00  0.00     0.039 C 
HETATM    3  C3  PEN     1      -7.511 -51.526  -9.366  1.00  0.00     0.299 C 
HETATM    4  N1  PEN     1      -6.135 -51.509  -8.819  1.00  0.00     0.146 N 
HETATM    5  C4  PEN     1      -5.936 -52.464  -7.729  1.00  0.00     0.326 A 
HETATM    6  S1  PEN     1      -7.480 -53.292  -7.244  1.00  0.00    -0.119 SA
HETATM    7  C5  PEN     1      -5.431 -51.386  -6.763  1.00  0.00     0.325 A 
HETATM    8  C6  PEN     1      -5.746 -50.413  -7.904  1.00  0.00     0.395 A 
HETATM    9  C16 PEN     1      -9.478 -51.509  -7.733  1.00  0.00     0.029 C 
ENDROOT
BRANCH   7  10
HETATM   10  N2  PEN     1      -6.225 -51.233  -5.525  1.00  0.00     0.124 N 
HETATM   11  H7  PEN     1      -6.738 -50.325  -5.518  1.00  0.00     0.320 HD
BRANCH  10  12
HETATM   12  C7  PEN     1      -5.376 -51.334  -4.324  1.00  0.00     0.354 C 
BRANCH  12  13
HETATM   13  O2  PEN     1      -4.758 -52.597  -4.286  1.00  0.00    -0.368 OA
HETATM   14  H4  PEN     1      -3.908 -52.484  -3.785  1.00  0.00     0.212 HD
ENDBRANCH  12  13
BRANCH  12  15
HETATM   15  C8  PEN     1      -4.285 -50.250  -4.377  1.00  0.00     0.068 C 
BRANCH  15  16
HETATM   16  C9  PEN     1      -4.582 -49.038  -3.463  1.00  0.00    -0.010 C 
HETATM   17  C10 PEN     1      -5.812 -49.324  -2.579  1.00  0.00     0.005 C 
HETATM   18  C11 PEN     1      -6.218 -48.090  -1.747  1.00  0.00     0.000 C 
HETATM   19  C12 PEN     1      -5.032 -47.174  -1.386  1.00  0.00     0.000 C 
HETATM   20  C13 PEN     1      -3.727 -47.965  -1.264  1.00  0.00     0.000 C 
HETATM   21  C14 PEN     1      -3.354 -48.657  -2.590  1.00  0.00     0.005 C 
ENDBRANCH  15  16
ENDBRANCH  12  15
ENDBRANCH  10  12
ENDBRANCH   7  10
BRANCH   8  22
HETATM   22  O1  PEN     1      -6.789 -49.515  -7.618  1.00  0.00    -0.366 OA
HETATM   23  H2  PEN     1      -6.583 -48.683  -8.117  1.00  0.00     0.212 HD
ENDBRANCH   8  22
BRANCH   3  24
HETATM   24  C15 PEN     1      -7.380 -51.903 -10.861  1.00  0.00     0.289 C 
BRANCH  24  25
HETATM   25  O3  PEN     1      -6.772 -50.865 -11.585  1.00  0.00    -0.369 OA
HETATM   26  H12 PEN     1      -7.492 -50.410 -12.093  1.00  0.00     0.212 HD
ENDBRANCH  24  25
BRANCH  24  27
HETATM   27  O4  PEN     1      -6.663 -53.100 -11.014  1.00  0.00    -0.369 OA
HETATM   28  H15 PEN     1      -7.334 -53.827 -11.097  1.00  0.00     0.212 HD
ENDBRANCH  24  27
ENDBRANCH   3  24
TORSDOF 9
ENDMDL
