@<TRIPOS>MOLECULE
*****
 53 55 0 0 0
SMALL
GASTEIGER

@<TRIPOS>ATOM
      1  C1        16.0687   21.8863  -10.9024 C.3     1  PEN1       -0.0490
      2  N1        14.9688   18.8404  -12.9259 N.3     1  PEN1       -0.2537
      3  O1        12.7574   19.3249  -13.7573 O.3     1  PEN1       -0.3755
      4  S1        16.9898   20.5390  -13.1513 S.3     1  PEN1       -0.1321
      5  C2        15.5874   21.0726  -12.1318 C.3     1  PEN1        0.0329
      6  N2        14.3950   19.6325  -15.7488 N.3     1  PEN1       -0.2832
      7  O2        12.3969   19.4200  -17.0285 O.3     1  PEN1       -0.3774
      8  C3        14.8294   19.7630  -11.7619 C.3     1  PEN1        0.0784
      9  O3        14.6299   19.4155   -9.3314 O.3     1  PEN1       -0.3658
     10  C4        16.0354   19.1632  -13.8759 C.3     1  PEN1        0.0791
     11  O4        15.3173   17.6265  -10.6306 O.3     1  PEN1       -0.3658
     12  C5        15.0437   18.6133  -14.8722 C.3     1  PEN1        0.0746
     13  C6        13.8422   18.4069  -13.8393 C.3     1  PEN1        0.1278
     14  C7        13.8204   19.3095  -17.0647 C.3     1  PEN1        0.1068
     15  C8        14.4438   20.2107  -18.1583 C.3     1  PEN1       -0.0104
     16  C9        14.2764   21.7408  -17.9209 C.3     1  PEN1       -0.0375
     17  C10       15.4242   22.5272  -18.5994 C.3     1  PEN1       -0.0501
     18  C11       15.3788   24.0281  -18.2165 C.3     1  PEN1       -0.0528
     19  C12       13.9390   24.5540  -17.9924 C.3     1  PEN1       -0.0530
     20  C13       12.9164   23.7568  -18.8265 C.3     1  PEN1       -0.0528
     21  C14       12.8937   22.2631  -18.4126 C.3     1  PEN1       -0.0501
     22  C15       15.3847   19.0488  -10.4928 C.3     1  PEN1        0.1703
     23  C16       14.6558   22.0052  -12.9459 C.3     1  PEN1       -0.0490
     24  H01       16.5131   22.8323  -11.2212 H       1  PEN1        0.0243
     25  H02       15.2354   22.1136  -10.2334 H       1  PEN1        0.0243
     26  H03       16.8342   21.3533  -10.3358 H       1  PEN1        0.0243
     27  H04       12.6260   19.6680  -14.6570 H       1  PEN1        0.2115
     28  H05       13.9579   20.4213  -15.2776 H       1  PEN1        0.1248
     29  H06       12.1360   20.3430  -17.2060 H       1  PEN1        0.2114
     30  H07       13.7728   19.9813  -11.5832 H       1  PEN1        0.0527
     31  H08       14.1710   20.2650   -9.4810 H       1  PEN1        0.2125
     32  H09       16.6931   18.2938  -14.0259 H       1  PEN1        0.0596
     33  H10       15.5570   17.4300  -11.5620 H       1  PEN1        0.2125
     34  H11       15.3920   17.7085  -15.3887 H       1  PEN1        0.0524
     35  H12       12.9607   17.8724  -14.2066 H       1  PEN1        0.0784
     36  H13       14.0488   18.2566  -17.2920 H       1  PEN1        0.0765
     37  H14       14.0471   19.9326  -19.1379 H       1  PEN1        0.0306
     38  H15       15.5099   19.9714  -18.1898 H       1  PEN1        0.0306
     39  H16       14.3575   21.9497  -16.8516 H       1  PEN1        0.0302
     40  H17       15.3456   22.4202  -19.6845 H       1  PEN1        0.0268
     41  H18       16.3947   22.1195  -18.3051 H       1  PEN1        0.0268
     42  H19       15.8655   24.6061  -19.0057 H       1  PEN1        0.0265
     43  H20       15.9551   24.1902  -17.3019 H       1  PEN1        0.0265
     44  H21       13.8911   25.6150  -18.2487 H       1  PEN1        0.0265
     45  H22       13.6784   24.4663  -16.9343 H       1  PEN1        0.0265
     46  H23       13.1809   23.8394  -19.8842 H       1  PEN1        0.0265
     47  H24       11.9186   24.1865  -18.7112 H       1  PEN1        0.0265
     48  H25       12.1612   22.1247  -17.6140 H       1  PEN1        0.0268
     49  H26       12.5445   21.6809  -19.2690 H       1  PEN1        0.0268
     50  H27       16.4431   19.2917  -10.3196 H       1  PEN1        0.0922
     51  H28       13.7828   22.2943  -12.3559 H       1  PEN1        0.0243
     52  H29       15.1841   22.9153  -13.2401 H       1  PEN1        0.0243
     53  H30       14.3022   21.5276  -13.8575 H       1  PEN1        0.0243
@<TRIPOS>BOND
     1    46    20    1
     2    49    21    1
     3    40    17    1
     4    37    15    1
     5    47    20    1
     6    20    21    1
     7    20    19    1
     8    21    48    1
     9    21    16    1
    10    42    18    1
    11    38    15    1
    12    17    16    1
    13    17    18    1
    14    17    41    1
    15    15    16    1
    16    15    14    1
    17    44    19    1
    18    16    39    1
    19    19    18    1
    20    19    45    1
    21    18    43    1
    22    36    14    1
    23    29     7    1
    24    14     7    1
    25    14     6    1
    26     6    28    1
    27     6    12    1
    28    34    12    1
    29    12    10    1
    30    12    13    1
    31    27     3    1
    32    32    10    1
    33    10     4    1
    34    10     2    1
    35     4     5    1
    36    13    35    1
    37    13     3    1
    38    13     2    1
    39    53    23    1
    40     2     8    1
    41    23    52    1
    42    23     5    1
    43    23    51    1
    44     5     8    1
    45     5     1    1
    46    24     1    1
    47     8    30    1
    48     8    22    1
    49    33    11    1
    50     1    25    1
    51     1    26    1
    52    11    22    1
    53    22    50    1
    54    22     9    1
    55     9    31    1
