REMARK  1 active torsions:
REMARK  status: ('A' for Active; 'I' for Inactive)
REMARK    1  A    between atoms: C_13  and  C_14 
ROOT
HETATM    1  C   TDL     1       4.893  -1.493   0.222  1.00  0.00     0.153 C 
HETATM    2  N   TDL     1       3.669  -0.729   0.091  1.00  0.00    -0.346 N 
HETATM    3  C   TDL     1       3.750   0.570  -0.563  1.00  0.00     0.228 C 
HETATM    4  C   TDL     1       2.618   1.509  -0.142  1.00  0.00     0.239 C 
HETATM    5  O   TDL     1       2.738   2.730  -0.236  1.00  0.00    -0.271 OA
HETATM    6  N   TDL     1       1.423   0.870   0.209  1.00  0.00    -0.323 N 
HETATM    7  C   TDL     1       1.235  -0.523  -0.295  1.00  0.00     0.185 C 
HETATM    8  C   TDL     1       2.453  -1.409   0.050  1.00  0.00     0.243 C 
HETATM    9  O   TDL     1       2.375  -2.632   0.153  1.00  0.00    -0.271 OA
HETATM   10  C   TDL     1      -0.033  -1.248   0.209  1.00  0.00     0.076 C 
HETATM   11  C   TDL     1      -1.194  -0.335   0.131  1.00  0.00    -0.018 A 
HETATM   12  C   TDL     1      -1.016   1.024   0.254  1.00  0.00     0.045 A 
HETATM   13  C   TDL     1       0.271   1.756   0.468  1.00  0.00     0.172 C 
HETATM   14  N   TDL     1      -2.247   1.618   0.166  1.00  0.00    -0.356 N 
HETATM   15  C   TDL     1      -3.218   0.658  -0.019  1.00  0.00     0.043 A 
HETATM   16  C   TDL     1      -4.604   0.795  -0.158  1.00  0.00     0.030 A 
HETATM   17  C   TDL     1      -5.357  -0.371  -0.325  1.00  0.00     0.002 A 
HETATM   18  C   TDL     1      -4.747  -1.623  -0.350  1.00  0.00     0.001 A 
HETATM   19  C   TDL     1      -3.360  -1.745  -0.209  1.00  0.00     0.014 A 
HETATM   20  C   TDL     1      -2.579  -0.585  -0.042  1.00  0.00    -0.001 A 
HETATM   21  H   TDL     1      -2.429   2.610   0.247  1.00  0.00     0.166 HD
ENDROOT
BRANCH  13  22
HETATM   22  C   TDL     1       0.350   2.352   1.870  1.00  0.00    -0.027 A 
HETATM   23  C   TDL     1       0.221   1.541   3.015  1.00  0.00     0.049 A 
HETATM   24  C   TDL     1       0.287   2.141   4.254  1.00  0.00     0.105 A 
HETATM   25  C   TDL     1       0.480   3.494   4.395  1.00  0.00     0.105 A 
HETATM   26  O   TDL     1       0.172   1.506   5.451  1.00  0.00    -0.323 OA
HETATM   27  C   TDL     1       0.625   4.323   3.305  1.00  0.00     0.040 A 
HETATM   28  O   TDL     1       0.509   3.882   5.699  1.00  0.00    -0.323 OA
HETATM   29  C   TDL     1       0.561   3.744   2.034  1.00  0.00     0.012 A 
HETATM   30  C   TDL     1       0.309   2.616   6.361  1.00  0.00     0.352 A 
ENDBRANCH  13  22
TORSDOF 1
