REMARK  3 active torsions:
REMARK  status: ('A' for Active; 'I' for Inactive)
REMARK    1  A    between atoms: C7_9  and  C18_24 
REMARK    2  A    between atoms: C12_15  and  N2_16 
REMARK    3  A    between atoms: C18_24  and  O4_26 
ROOT
HETATM    1  C1  LFX     1       2.450  -1.998   2.132  1.00  0.00     0.035 C 
HETATM    2  C2  LFX     1       2.605  -2.013   0.609  1.00  0.00     0.110 C 
HETATM    3  C3  LFX     1       1.357  -2.555  -0.092  1.00  0.00     0.201 C 
HETATM    4  O1  LFX     1       0.216  -1.729   0.145  1.00  0.00    -0.344 OA
HETATM    5  C4  LFX     1       0.447  -0.406  -0.196  1.00  0.00     0.126 A 
HETATM    6  C5  LFX     1       1.760   0.120  -0.224  1.00  0.00     0.085 A 
HETATM    7  N1  LFX     1       2.892  -0.656   0.117  1.00  0.00    -0.346 N 
HETATM    8  C6  LFX     1       4.150  -0.084   0.104  1.00  0.00     0.114 A 
HETATM    9  C7  LFX     1       4.444   1.179  -0.250  1.00  0.00     0.104 A 
HETATM   10  C8  LFX     1       3.301   2.039  -0.658  1.00  0.00     0.202 A 
HETATM   11  O2  LFX     1       3.445   3.196  -1.038  1.00  0.00    -0.286 OA
HETATM   12  C9  LFX     1       1.933   1.459  -0.604  1.00  0.00     0.048 A 
HETATM   13  C10 LFX     1       0.835   2.258  -0.925  1.00  0.00     0.062 A 
HETATM   14  C11 LFX     1      -0.448   1.723  -0.865  1.00  0.00     0.146 A 
HETATM   15  C12 LFX     1      -0.691   0.384  -0.504  1.00  0.00     0.105 A 
HETATM   16  F1  LFX     1      -1.467   2.554  -1.141  1.00  0.00    -0.204 F 
ENDROOT
BRANCH  15  17
HETATM   17  N2  LFX     1      -1.983  -0.182  -0.428  1.00  0.00    -0.373 N 
HETATM   18  C13 LFX     1      -3.034   0.308  -1.347  1.00  0.00     0.153 C 
HETATM   19  C14 LFX     1      -4.119   1.124  -0.608  1.00  0.00     0.291 C 
HETATM   20  N3  LFX     1      -4.796   0.405   0.497  1.00  0.00     0.087 N 
HETATM   21  C15 LFX     1      -3.940  -0.677   1.037  1.00  0.00     0.291 C 
HETATM   22  C17 LFX     1      -6.093  -0.125   0.087  1.00  0.00     0.310 C 
HETATM   23  C16 LFX     1      -2.430  -0.355   0.977  1.00  0.00     0.153 C 
ENDBRANCH  15  17
BRANCH   9  24
HETATM   24  C18 LFX     1       5.832   1.679  -0.214  1.00  0.00     0.181 C 
HETATM   25  O3  LFX     1       6.212   2.824  -0.378  1.00  0.00    -0.646 OA
BRANCH  24  26
HETATM   26  O4  LFX     1       6.742   0.714   0.036  1.00  0.00    -0.773 OA
HETATM   27  H20 LFX     1       7.590   1.209   0.018  1.00  0.00     0.167 HD
ENDBRANCH  24  26
ENDBRANCH   9  24
TORSDOF 3
