@<TRIPOS>MOLECULE
*****
 28 30 0 0 0
SMALL
GASTEIGER

@<TRIPOS>ATOM
      1  C1        16.9171   21.1851  -11.2918 C.3     1  PEN1        0.0124
      2  N1        14.9712   18.4156  -12.9953 N.3     1  PEN1       -0.2368
      3  O1        12.8245   19.3612  -13.7596 O.3     1  PEN1       -0.3687
      4  S1        17.3949   19.4309  -13.3878 S.3     1  PEN1       -0.1235
      5  C2        16.2334   20.4649  -12.4676 C.3     1  PEN1        0.0589
      6  N2        14.4677   19.3835  -15.7665 N.3     1  PEN1       -0.2717
      7  O2        12.4538   19.3000  -17.0656 O.3     1  PEN1       -0.3699
      8  C3        15.0994   19.5256  -12.0125 C.3     1  PEN1        0.1256
      9  O3        13.9765   19.1290   -9.8883 O.3     1  PEN1       -0.3592
     10  C4        16.0168   18.4230  -14.0264 C.3     1  PEN1        0.1263
     11  O4        15.5980   17.6526  -10.4434 O.3     1  PEN1       -0.3592
     12  C5        14.8700   18.1832  -14.9702 C.3     1  PEN1        0.1243
     13  C6        13.7317   18.2669  -13.8516 C.3     1  PEN1        0.1900
     14  C7        13.8774   19.1955  -17.1010 C.3     1  PEN1        0.1689
     15  C8        14.4668   20.1848  -18.1252 C.3     1  PEN1        0.0463
     16  C9        14.2225   21.6566  -17.7501 C.3     1  PEN1        0.0038
     17  C10       15.5038   22.4859  -17.9575 C.3     1  PEN1        0.0001
     18  C11       15.3301   23.9546  -17.5128 C.3     1  PEN1        0.0000
     19  C12       13.8593   24.4240  -17.4955 C.3     1  PEN1        0.0000
     20  C13       13.0345   23.7771  -18.6251 C.3     1  PEN1        0.0000
     21  C14       13.0340   22.2343  -18.5487 C.3     1  PEN1        0.0001
     22  C15       15.2215   19.0221  -10.5486 C.3     1  PEN1        0.2445
     23  C16       15.6243   21.5429  -13.3790 C.3     1  PEN1        0.0124
     24  H2        12.7790   19.5970  -12.8160 H       1  PEN1        0.2120
     25  H4        12.1020   18.6670  -16.4140 H       1  PEN1        0.2119
     26  H7        13.9360   20.0657  -15.2287 H       1  PEN1        0.1255
     27  H12       14.0140   18.4390   -9.2010 H       1  PEN1        0.2130
     28  H15       16.4980   17.5670  -10.7820 H       1  PEN1        0.2130
@<TRIPOS>BOND
     1    20    21    1
     2    20    19    1
     3    21    16    1
     4    17    16    1
     5    17    18    1
     6    15    16    1
     7    15    14    1
     8    19    18    1
     9    14     7    1
    10    14     6    1
    11     7    25    1
    12     6    26    1
    13     6    12    1
    14    12    10    1
    15    12    13    1
    16    10     4    1
    17    10     2    1
    18     4     5    1
    19    13     3    1
    20    13     2    1
    21     3    24    1
    22     2     8    1
    23    23     5    1
    24     5     8    1
    25     5     1    1
    26     8    22    1
    27    28    11    1
    28    11    22    1
    29    22     9    1
    30     9    27    1
