MODEL 1
REMARK VINA RESULT:      -6.9      0.000      0.000
REMARK  1 active torsions:
REMARK  status: ('A' for Active; 'I' for Inactive)
REMARK    1  A    between atoms: C_13  and  C_14 
ROOT
HETATM    1  C   TDL     1      56.928  86.223 145.777  1.00  0.00     0.153 C 
HETATM    2  N   TDL     1      57.891  86.864 146.649  1.00  0.00    -0.346 N 
HETATM    3  C   TDL     1      58.699  87.939 146.090  1.00  0.00     0.228 C 
HETATM    4  C   TDL     1      60.018  88.131 146.841  1.00  0.00     0.239 C 
HETATM    5  O   TDL     1      60.986  88.662 146.298  1.00  0.00    -0.271 OA
HETATM    6  N   TDL     1      59.977  87.793 148.199  1.00  0.00    -0.323 N 
HETATM    7  C   TDL     1      58.628  87.749 148.838  1.00  0.00     0.185 C 
HETATM    8  C   TDL     1      57.655  86.869 148.023  1.00  0.00     0.243 C 
HETATM    9  O   TDL     1      56.676  86.321 148.528  1.00  0.00    -0.271 OA
HETATM   10  C   TDL     1      58.601  87.253 150.301  1.00  0.00     0.076 C 
HETATM   11  C   TDL     1      59.694  87.892 151.065  1.00  0.00    -0.018 A 
HETATM   12  C   TDL     1      60.855  88.269 150.429  1.00  0.00     0.045 A 
HETATM   13  C   TDL     1      61.188  88.115 148.979  1.00  0.00     0.172 C 
HETATM   14  N   TDL     1      61.692  88.808 151.370  1.00  0.00    -0.356 N 
HETATM   15  C   TDL     1      61.083  88.789 152.606  1.00  0.00     0.043 A 
HETATM   16  C   TDL     1      61.554  89.227 153.849  1.00  0.00     0.030 A 
HETATM   17  C   TDL     1      60.711  89.072 154.953  1.00  0.00     0.002 A 
HETATM   18  C   TDL     1      59.448  88.499 154.818  1.00  0.00     0.001 A 
HETATM   19  C   TDL     1      58.990  88.065 153.569  1.00  0.00     0.014 A 
HETATM   20  C   TDL     1      59.820  88.212 152.441  1.00  0.00    -0.001 A 
HETATM   21  H   TDL     1      62.629  89.149 151.198  1.00  0.00     0.166 HD
ENDROOT
BRANCH  13  22
HETATM   22  C   TDL     1      62.269  87.061 148.762  1.00  0.00    -0.027 A 
HETATM   23  C   TDL     1      63.637  87.391 148.853  1.00  0.00     0.049 A 
HETATM   24  C   TDL     1      64.566  86.397 148.631  1.00  0.00     0.105 A 
HETATM   25  C   TDL     1      64.193  85.109 148.334  1.00  0.00     0.105 A 
HETATM   26  O   TDL     1      65.917  86.550 148.671  1.00  0.00    -0.323 OA
HETATM   27  C   TDL     1      62.870  84.738 148.249  1.00  0.00     0.040 A 
HETATM   28  O   TDL     1      65.263  84.288 148.148  1.00  0.00    -0.323 OA
HETATM   29  C   TDL     1      61.903  85.724 148.467  1.00  0.00     0.012 A 
HETATM   30  C   TDL     1      66.351  85.211 148.360  1.00  0.00     0.352 A 
ENDBRANCH  13  22
TORSDOF 1
ENDMDL
