MODEL 1
REMARK VINA RESULT:      -6.8      0.000      0.000
REMARK  1 active torsions:
REMARK  status: ('A' for Active; 'I' for Inactive)
REMARK    1  A    between atoms: C_13  and  C_14 
ROOT
HETATM    1  C   TDL     1      56.873  86.324 145.745  1.00  0.00     0.153 C 
HETATM    2  N   TDL     1      57.839  86.945 146.628  1.00  0.00    -0.346 N 
HETATM    3  C   TDL     1      58.653  88.024 146.086  1.00  0.00     0.228 C 
HETATM    4  C   TDL     1      59.973  88.196 146.840  1.00  0.00     0.239 C 
HETATM    5  O   TDL     1      60.944  88.730 146.306  1.00  0.00    -0.271 OA
HETATM    6  N   TDL     1      59.930  87.836 148.192  1.00  0.00    -0.323 N 
HETATM    7  C   TDL     1      58.581  87.789 148.831  1.00  0.00     0.185 C 
HETATM    8  C   TDL     1      57.602  86.928 148.001  1.00  0.00     0.243 C 
HETATM    9  O   TDL     1      56.621  86.377 148.497  1.00  0.00    -0.271 OA
HETATM   10  C   TDL     1      58.550  87.269 150.285  1.00  0.00     0.076 C 
HETATM   11  C   TDL     1      59.647  87.889 151.060  1.00  0.00    -0.018 A 
HETATM   12  C   TDL     1      60.811  88.270 150.431  1.00  0.00     0.045 A 
HETATM   13  C   TDL     1      61.143  88.138 148.978  1.00  0.00     0.172 C 
HETATM   14  N   TDL     1      61.651  88.788 151.380  1.00  0.00    -0.356 N 
HETATM   15  C   TDL     1      61.041  88.752 152.615  1.00  0.00     0.043 A 
HETATM   16  C   TDL     1      61.515  89.167 153.865  1.00  0.00     0.030 A 
HETATM   17  C   TDL     1      60.670  88.999 154.967  1.00  0.00     0.002 A 
HETATM   18  C   TDL     1      59.404  88.436 154.822  1.00  0.00     0.001 A 
HETATM   19  C   TDL     1      58.944  88.025 153.566  1.00  0.00     0.014 A 
HETATM   20  C   TDL     1      59.775  88.186 152.441  1.00  0.00    -0.001 A 
HETATM   21  H   TDL     1      62.590  89.127 151.213  1.00  0.00     0.166 HD
ENDROOT
BRANCH  13  22
HETATM   22  C   TDL     1      62.218  87.081 148.743  1.00  0.00    -0.027 A 
HETATM   23  C   TDL     1      63.587  87.413 148.783  1.00  0.00     0.049 A 
HETATM   24  C   TDL     1      64.510  86.417 148.549  1.00  0.00     0.105 A 
HETATM   25  C   TDL     1      64.130  85.123 148.286  1.00  0.00     0.105 A 
HETATM   26  O   TDL     1      65.861  86.572 148.541  1.00  0.00    -0.323 OA
HETATM   27  C   TDL     1      62.805  84.750 148.251  1.00  0.00     0.040 A 
HETATM   28  O   TDL     1      65.194  84.301 148.079  1.00  0.00    -0.323 OA
HETATM   29  C   TDL     1      61.844  85.739 148.483  1.00  0.00     0.012 A 
HETATM   30  C   TDL     1      66.287  85.228 148.239  1.00  0.00     0.352 A 
ENDBRANCH  13  22
TORSDOF 1
ENDMDL
