MODEL 1
REMARK VINA RESULT:      -6.8      0.000      0.000
REMARK  1 active torsions:
REMARK  status: ('A' for Active; 'I' for Inactive)
REMARK    1  A    between atoms: C_13  and  C_14 
ROOT
HETATM    1  C   TDL     1      56.860  86.408 145.823  1.00  0.00     0.153 C 
HETATM    2  N   TDL     1      57.826  87.018 146.714  1.00  0.00    -0.346 N 
HETATM    3  C   TDL     1      58.628  88.116 146.192  1.00  0.00     0.228 C 
HETATM    4  C   TDL     1      59.951  88.283 146.941  1.00  0.00     0.239 C 
HETATM    5  O   TDL     1      60.914  88.837 146.414  1.00  0.00    -0.271 OA
HETATM    6  N   TDL     1      59.919  87.892 148.285  1.00  0.00    -0.323 N 
HETATM    7  C   TDL     1      58.575  87.819 148.931  1.00  0.00     0.185 C 
HETATM    8  C   TDL     1      57.598  86.968 148.088  1.00  0.00     0.243 C 
HETATM    9  O   TDL     1      56.624  86.398 148.577  1.00  0.00    -0.271 OA
HETATM   10  C   TDL     1      58.558  87.267 150.373  1.00  0.00     0.076 C 
HETATM   11  C   TDL     1      59.654  87.878 151.155  1.00  0.00    -0.018 A 
HETATM   12  C   TDL     1      60.810  88.283 150.528  1.00  0.00     0.045 A 
HETATM   13  C   TDL     1      61.134  88.187 149.070  1.00  0.00     0.172 C 
HETATM   14  N   TDL     1      61.652  88.787 151.483  1.00  0.00    -0.356 N 
HETATM   15  C   TDL     1      61.050  88.718 152.721  1.00  0.00     0.043 A 
HETATM   16  C   TDL     1      61.528  89.109 153.977  1.00  0.00     0.030 A 
HETATM   17  C   TDL     1      60.692  88.909 155.080  1.00  0.00     0.002 A 
HETATM   18  C   TDL     1      59.430  88.339 154.930  1.00  0.00     0.001 A 
HETATM   19  C   TDL     1      58.965  87.952 153.668  1.00  0.00     0.014 A 
HETATM   20  C   TDL     1      59.787  88.145 152.541  1.00  0.00    -0.001 A 
HETATM   21  H   TDL     1      62.586  89.138 151.319  1.00  0.00     0.166 HD
ENDROOT
BRANCH  13  22
HETATM   22  C   TDL     1      62.217  87.145 148.805  1.00  0.00    -0.027 A 
HETATM   23  C   TDL     1      63.569  87.518 148.672  1.00  0.00     0.049 A 
HETATM   24  C   TDL     1      64.499  86.532 148.419  1.00  0.00     0.105 A 
HETATM   25  C   TDL     1      64.141  85.211 148.302  1.00  0.00     0.105 A 
HETATM   26  O   TDL     1      65.835  86.724 148.254  1.00  0.00    -0.323 OA
HETATM   27  C   TDL     1      62.834  84.799 148.439  1.00  0.00     0.040 A 
HETATM   28  O   TDL     1      65.207  84.404 148.047  1.00  0.00    -0.323 OA
HETATM   29  C   TDL     1      61.867  85.776 148.694  1.00  0.00     0.012 A 
HETATM   30  C   TDL     1      66.276  85.372 148.015  1.00  0.00     0.352 A 
ENDBRANCH  13  22
TORSDOF 1
ENDMDL
