MODEL 1
REMARK VINA RESULT:      -6.9      0.000      0.000
REMARK  1 active torsions:
REMARK  status: ('A' for Active; 'I' for Inactive)
REMARK    1  A    between atoms: C_13  and  C_14 
ROOT
HETATM    1  C   TDL     1      56.883  86.244 145.784  1.00  0.00     0.153 C 
HETATM    2  N   TDL     1      57.842  86.890 146.656  1.00  0.00    -0.346 N 
HETATM    3  C   TDL     1      58.628  87.984 146.103  1.00  0.00     0.228 C 
HETATM    4  C   TDL     1      59.950  88.189 146.845  1.00  0.00     0.239 C 
HETATM    5  O   TDL     1      60.905  88.742 146.301  1.00  0.00    -0.271 OA
HETATM    6  N   TDL     1      59.926  87.834 148.199  1.00  0.00    -0.323 N 
HETATM    7  C   TDL     1      58.583  87.762 148.849  1.00  0.00     0.185 C 
HETATM    8  C   TDL     1      57.617  86.875 148.032  1.00  0.00     0.243 C 
HETATM    9  O   TDL     1      56.651  86.306 148.538  1.00  0.00    -0.271 OA
HETATM   10  C   TDL     1      58.575  87.248 150.306  1.00  0.00     0.076 C 
HETATM   11  C   TDL     1      59.665  87.896 151.069  1.00  0.00    -0.018 A 
HETATM   12  C   TDL     1      60.814  88.299 150.428  1.00  0.00     0.045 A 
HETATM   13  C   TDL     1      61.138  88.167 148.974  1.00  0.00     0.172 C 
HETATM   14  N   TDL     1      61.651  88.840 151.368  1.00  0.00    -0.356 N 
HETATM   15  C   TDL     1      61.051  88.796 152.608  1.00  0.00     0.043 A 
HETATM   16  C   TDL     1      61.526  89.228 153.853  1.00  0.00     0.030 A 
HETATM   17  C   TDL     1      60.694  89.046 154.962  1.00  0.00     0.002 A 
HETATM   18  C   TDL     1      59.440  88.455 154.830  1.00  0.00     0.001 A 
HETATM   19  C   TDL     1      58.979  88.028 153.580  1.00  0.00     0.014 A 
HETATM   20  C   TDL     1      59.797  88.202 152.447  1.00  0.00    -0.001 A 
HETATM   21  H   TDL     1      62.580  89.198 151.192  1.00  0.00     0.166 HD
ENDROOT
BRANCH  13  22
HETATM   22  C   TDL     1      62.234  87.133 148.735  1.00  0.00    -0.027 A 
HETATM   23  C   TDL     1      63.594  87.501 148.729  1.00  0.00     0.049 A 
HETATM   24  C   TDL     1      64.537  86.524 148.493  1.00  0.00     0.105 A 
HETATM   25  C   TDL     1      64.184  85.214 148.274  1.00  0.00     0.105 A 
HETATM   26  O   TDL     1      65.882  86.714 148.444  1.00  0.00    -0.323 OA
HETATM   27  C   TDL     1      62.869  84.806 148.285  1.00  0.00     0.040 A 
HETATM   28  O   TDL     1      65.263  84.414 148.057  1.00  0.00    -0.323 OA
HETATM   29  C   TDL     1      61.889  85.775 148.520  1.00  0.00     0.012 A 
HETATM   30  C   TDL     1      66.335  85.374 148.163  1.00  0.00     0.352 A 
ENDBRANCH  13  22
TORSDOF 1
ENDMDL
