MODEL 1
REMARK VINA RESULT:      -6.9      0.000      0.000
REMARK  1 active torsions:
REMARK  status: ('A' for Active; 'I' for Inactive)
REMARK    1  A    between atoms: C_13  and  C_14 
ROOT
HETATM    1  C   TDL     1      56.946  86.335 145.773  1.00  0.00     0.153 C 
HETATM    2  N   TDL     1      57.901  86.957 146.667  1.00  0.00    -0.346 N 
HETATM    3  C   TDL     1      58.705  88.052 146.141  1.00  0.00     0.228 C 
HETATM    4  C   TDL     1      60.021  88.230 146.901  1.00  0.00     0.239 C 
HETATM    5  O   TDL     1      60.987  88.783 146.377  1.00  0.00    -0.271 OA
HETATM    6  N   TDL     1      59.977  87.853 148.249  1.00  0.00    -0.323 N 
HETATM    7  C   TDL     1      58.627  87.783 148.882  1.00  0.00     0.185 C 
HETATM    8  C   TDL     1      57.661  86.920 148.039  1.00  0.00     0.243 C 
HETATM    9  O   TDL     1      56.684  86.352 148.525  1.00  0.00    -0.271 OA
HETATM   10  C   TDL     1      58.598  87.245 150.330  1.00  0.00     0.076 C 
HETATM   11  C   TDL     1      59.685  87.868 151.116  1.00  0.00    -0.018 A 
HETATM   12  C   TDL     1      60.845  88.270 150.495  1.00  0.00     0.045 A 
HETATM   13  C   TDL     1      61.184  88.159 149.042  1.00  0.00     0.172 C 
HETATM   14  N   TDL     1      61.676  88.786 151.454  1.00  0.00    -0.356 N 
HETATM   15  C   TDL     1      61.063  88.728 152.686  1.00  0.00     0.043 A 
HETATM   16  C   TDL     1      61.528  89.133 153.943  1.00  0.00     0.030 A 
HETATM   17  C   TDL     1      60.682  88.941 155.039  1.00  0.00     0.002 A 
HETATM   18  C   TDL     1      59.423  88.365 154.884  1.00  0.00     0.001 A 
HETATM   19  C   TDL     1      58.972  87.964 153.621  1.00  0.00     0.014 A 
HETATM   20  C   TDL     1      59.804  88.149 152.501  1.00  0.00    -0.001 A 
HETATM   21  H   TDL     1      62.612  89.138 151.295  1.00  0.00     0.166 HD
ENDROOT
BRANCH  13  22
HETATM   22  C   TDL     1      62.272  87.119 148.798  1.00  0.00    -0.027 A 
HETATM   23  C   TDL     1      63.630  87.488 148.722  1.00  0.00     0.049 A 
HETATM   24  C   TDL     1      64.565  86.504 148.485  1.00  0.00     0.105 A 
HETATM   25  C   TDL     1      64.207  85.186 148.330  1.00  0.00     0.105 A 
HETATM   26  O   TDL     1      65.907  86.693 148.373  1.00  0.00    -0.323 OA
HETATM   27  C   TDL     1      62.894  84.777 148.411  1.00  0.00     0.040 A 
HETATM   28  O   TDL     1      65.279  84.380 148.100  1.00  0.00    -0.323 OA
HETATM   29  C   TDL     1      61.922  85.754 148.649  1.00  0.00     0.012 A 
HETATM   30  C   TDL     1      66.351  85.345 148.125  1.00  0.00     0.352 A 
ENDBRANCH  13  22
TORSDOF 1
ENDMDL
