REMARK  1 active torsions:
REMARK  status: ('A' for Active; 'I' for Inactive)
REMARK    1  A    between atoms: C9_13  and  C10_14 
ROOT
HETATM    1  C1  TDL     1       1.156   5.418   0.356  1.00  0.00     0.153 C 
HETATM    2  N1  TDL     1       0.768   4.057   0.678  1.00  0.00    -0.346 N 
HETATM    3  C2  TDL     1       1.816   3.203   1.214  1.00  0.00     0.228 C 
HETATM    4  C3  TDL     1       1.379   1.820   1.691  1.00  0.00     0.239 C 
HETATM    5  O1  TDL     1       1.973   1.246   2.602  1.00  0.00    -0.271 OA
HETATM    6  N2  TDL     1       0.427   1.206   0.868  1.00  0.00    -0.323 N 
HETATM    7  C4  TDL     1      -0.680   2.079   0.394  1.00  0.00     0.185 C 
HETATM    8  C5  TDL     1      -0.223   3.466  -0.106  1.00  0.00     0.243 C 
HETATM    9  O2  TDL     1      -0.825   4.087  -0.981  1.00  0.00    -0.271 OA
HETATM   10  C6  TDL     1      -1.558   1.441  -0.708  1.00  0.00     0.076 C 
HETATM   11  C7  TDL     1      -1.940   0.070  -0.301  1.00  0.00    -0.018 A 
HETATM   12  C8  TDL     1      -1.142  -0.649   0.560  1.00  0.00     0.045 A 
HETATM   13  C9  TDL     1       0.147  -0.214   1.188  1.00  0.00     0.172 C 
HETATM   14  N3  TDL     1      -1.729  -1.872   0.751  1.00  0.00    -0.356 N 
HETATM   15  C17 TDL     1      -2.901  -1.949   0.028  1.00  0.00     0.043 A 
HETATM   16  C18 TDL     1      -3.824  -2.995  -0.082  1.00  0.00     0.030 A 
HETATM   17  C19 TDL     1      -4.937  -2.793  -0.904  1.00  0.00     0.002 A 
HETATM   18  C20 TDL     1      -5.117  -1.593  -1.588  1.00  0.00     0.001 A 
HETATM   19  C21 TDL     1      -4.184  -0.556  -1.469  1.00  0.00     0.014 A 
HETATM   20  C22 TDL     1      -3.055  -0.735  -0.646  1.00  0.00    -0.001 A 
HETATM   21  H15 TDL     1      -1.355  -2.623   1.316  1.00  0.00     0.166 HD
ENDROOT
BRANCH  13  22
HETATM   22  C10 TDL     1       1.299  -1.108   0.730  1.00  0.00    -0.027 A 
HETATM   23  C11 TDL     1       1.646  -1.198  -0.632  1.00  0.00     0.049 A 
HETATM   24  C12 TDL     1       2.690  -2.026  -0.987  1.00  0.00     0.105 A 
HETATM   25  C13 TDL     1       3.389  -2.752  -0.053  1.00  0.00     0.105 A 
HETATM   26  O4  TDL     1       3.149  -2.227  -2.251  1.00  0.00    -0.323 OA
HETATM   27  C14 TDL     1       3.088  -2.689   1.289  1.00  0.00     0.040 A 
HETATM   28  O3  TDL     1       4.376  -3.502  -0.612  1.00  0.00    -0.323 OA
HETATM   29  C15 TDL     1       2.033  -1.858   1.681  1.00  0.00     0.012 A 
HETATM   30  C16 TDL     1       4.218  -3.164  -2.005  1.00  0.00     0.352 A 
ENDBRANCH  13  22
TORSDOF 1
