MODEL 1
REMARK VINA RESULT:    -4.446      0.000      0.000
REMARK INTER + INTRA:          -5.954
REMARK INTER:                  -5.745
REMARK INTRA:                  -0.208
REMARK UNBOUND:                -0.208
REMARK  5 active torsions:
REMARK  status: ('A' for Active; 'I' for Inactive)
REMARK    1  A    between atoms: C2_3  and  C7_10 
REMARK    2  A    between atoms: C7_10  and  C8_11 
REMARK    3  A    between atoms: C8_11  and  C9_12 
REMARK    4  A    between atoms: C9_12  and  C10_13 
REMARK    5  A    between atoms: C10_13  and  C11_14 
ROOT
HETATM    1  N1  BTN A 300      11.150   8.117   9.840  1.00 17.73    -0.217 NA
HETATM    2  S1  BTN A 300       9.542  10.166   7.785  1.00 16.59    -0.137 SA
HETATM    3  C2  BTN A 300      10.650   9.268   6.623  1.00 17.74     0.072 C 
HETATM    4  N2  BTN A 300      12.483   8.727   8.221  1.00 17.92    -0.217 NA
HETATM    5  C3  BTN A 300      12.335   8.672   9.564  1.00 17.95     0.360 A 
HETATM    6  O3  BTN A 300      13.208   9.088  10.356  1.00 17.93    -0.243 OA
HETATM    7  C4  BTN A 300      11.323   8.194   7.509  1.00 17.65     0.141 A 
HETATM    8  C5  BTN A 300      10.393   7.766   8.640  1.00 17.47     0.142 A 
HETATM    9  C6  BTN A 300       9.090   8.549   8.516  1.00 17.06     0.084 C 
ENDROOT
BRANCH   3  10
HETATM   10  C7  BTN A 300      11.667   9.988   5.834  1.00 18.33     0.013 C 
BRANCH  10  11
HETATM   11  C8  BTN A 300      11.429  11.352   5.190  1.00 19.24     0.002 C 
BRANCH  11  12
HETATM   12  C9  BTN A 300      11.699  11.418   3.741  1.00 20.09     0.011 C 
BRANCH  12  13
HETATM   13  C10 BTN A 300      10.663  10.612   2.883  1.00 20.77     0.098 C 
BRANCH  13  14
HETATM   14  C11 BTN A 300      11.045  10.602   1.446  1.00 21.57     0.185 C 
HETATM   15  O11 BTN A 300      11.795  11.424   0.902  1.00 21.65    -0.647 OA
HETATM   16  O12 BTN A 300      10.161  10.005   0.670  1.00 22.67    -0.647 OA
ENDBRANCH  13  14
ENDBRANCH  12  13
ENDBRANCH  11  12
ENDBRANCH  10  11
ENDBRANCH   3  10
TORSDOF 5
ENDMDL
MODEL 2
REMARK VINA RESULT:    -4.381     15.507     16.523
REMARK INTER + INTRA:          -5.870
REMARK INTER:                  -5.725
REMARK INTRA:                  -0.145
REMARK UNBOUND:                -0.208
REMARK  5 active torsions:
REMARK  status: ('A' for Active; 'I' for Inactive)
REMARK    1  A    between atoms: C2_3  and  C7_10 
REMARK    2  A    between atoms: C7_10  and  C8_11 
REMARK    3  A    between atoms: C8_11  and  C9_12 
REMARK    4  A    between atoms: C9_12  and  C10_13 
REMARK    5  A    between atoms: C10_13  and  C11_14 
ROOT
HETATM    1  N1  BTN A 300      20.681  -0.781  14.598  1.00 17.73    -0.217 NA
HETATM    2  S1  BTN A 300      23.801   0.343  14.536  1.00 16.59    -0.137 SA
HETATM    3  C2  BTN A 300      22.933   1.704  15.419  1.00 17.74     0.072 C 
HETATM    4  N2  BTN A 300      20.672   1.396  14.419  1.00 17.92    -0.217 NA
HETATM    5  C3  BTN A 300      20.232   0.244  13.865  1.00 17.95     0.360 A 
HETATM    6  O3  BTN A 300      19.523   0.219  12.836  1.00 17.93    -0.243 OA
HETATM    7  C4  BTN A 300      21.495   1.166  15.605  1.00 17.65     0.141 A 
HETATM    8  C5  BTN A 300      21.499  -0.354  15.731  1.00 17.47     0.142 A 
HETATM    9  C6  BTN A 300      22.940  -0.843  15.634  1.00 17.06     0.084 C 
ENDROOT
BRANCH   3  10
HETATM   10  C7  BTN A 300      22.898   3.070  14.863  1.00 18.33     0.013 C 
BRANCH  10  11
HETATM   11  C8  BTN A 300      24.139   3.941  14.680  1.00 19.24     0.002 C 
BRANCH  11  12
HETATM   12  C9  BTN A 300      23.958   5.368  15.009  1.00 20.09     0.011 C 
BRANCH  12  13
HETATM   13  C10 BTN A 300      25.119   6.277  14.475  1.00 20.77     0.098 C 
BRANCH  13  14
HETATM   14  C11 BTN A 300      24.601   7.585  13.993  1.00 21.57     0.185 C 
HETATM   15  O11 BTN A 300      24.568   7.946  12.809  1.00 21.65    -0.647 OA
HETATM   16  O12 BTN A 300      24.657   8.540  14.901  1.00 22.67    -0.647 OA
ENDBRANCH  13  14
ENDBRANCH  12  13
ENDBRANCH  11  12
ENDBRANCH  10  11
ENDBRANCH   3  10
TORSDOF 5
ENDMDL
MODEL 3
REMARK VINA RESULT:    -4.379     15.926     17.602
REMARK INTER + INTRA:          -5.867
REMARK INTER:                  -5.341
REMARK INTRA:                  -0.527
REMARK UNBOUND:                -0.208
REMARK  5 active torsions:
REMARK  status: ('A' for Active; 'I' for Inactive)
REMARK    1  A    between atoms: C2_3  and  C7_10 
REMARK    2  A    between atoms: C7_10  and  C8_11 
REMARK    3  A    between atoms: C8_11  and  C9_12 
REMARK    4  A    between atoms: C9_12  and  C10_13 
REMARK    5  A    between atoms: C10_13  and  C11_14 
ROOT
HETATM    1  N1  BTN A 300      19.853  -1.943  13.491  1.00 17.73    -0.217 NA
HETATM    2  S1  BTN A 300      23.000  -2.524  14.361  1.00 16.59    -0.137 SA
HETATM    3  C2  BTN A 300      22.367  -1.626  15.836  1.00 17.74     0.072 C 
HETATM    4  N2  BTN A 300      20.595  -0.287  14.707  1.00 17.92    -0.217 NA
HETATM    5  C3  BTN A 300      20.023  -0.617  13.527  1.00 17.95     0.360 A 
HETATM    6  O3  BTN A 300      19.728   0.234  12.660  1.00 17.93    -0.243 OA
HETATM    7  C4  BTN A 300      20.857  -1.455  15.545  1.00 17.65     0.141 A 
HETATM    8  C5  BTN A 300      20.337  -2.611  14.697  1.00 17.47     0.142 A 
HETATM    9  C6  BTN A 300      21.494  -3.564  14.417  1.00 17.06     0.084 C 
ENDROOT
BRANCH   3  10
HETATM   10  C7  BTN A 300      22.954  -0.337  16.252  1.00 18.33     0.013 C 
BRANCH  10  11
HETATM   11  C8  BTN A 300      24.160   0.302  15.567  1.00 19.24     0.002 C 
BRANCH  11  12
HETATM   12  C9  BTN A 300      23.849   1.447  14.690  1.00 20.09     0.011 C 
BRANCH  12  13
HETATM   13  C10 BTN A 300      23.563   1.028  13.206  1.00 20.77     0.098 C 
BRANCH  13  14
HETATM   14  C11 BTN A 300      24.825   0.742  12.473  1.00 21.57     0.185 C 
HETATM   15  O11 BTN A 300      25.527   1.590  11.904  1.00 21.65    -0.647 OA
HETATM   16  O12 BTN A 300      24.898  -0.491  12.012  1.00 22.67    -0.647 OA
ENDBRANCH  13  14
ENDBRANCH  12  13
ENDBRANCH  11  12
ENDBRANCH  10  11
ENDBRANCH   3  10
TORSDOF 5
ENDMDL
MODEL 4
REMARK VINA RESULT:    -4.353      3.834      6.958
REMARK INTER + INTRA:          -5.834
REMARK INTER:                  -5.631
REMARK INTRA:                  -0.203
REMARK UNBOUND:                -0.208
REMARK  5 active torsions:
REMARK  status: ('A' for Active; 'I' for Inactive)
REMARK    1  A    between atoms: C2_3  and  C7_10 
REMARK    2  A    between atoms: C7_10  and  C8_11 
REMARK    3  A    between atoms: C8_11  and  C9_12 
REMARK    4  A    between atoms: C9_12  and  C10_13 
REMARK    5  A    between atoms: C10_13  and  C11_14 
ROOT
HETATM    1  N1  BTN A 300      10.984   8.743   6.519  1.00 17.73    -0.217 NA
HETATM    2  S1  BTN A 300      12.675   8.873   9.370  1.00 16.59    -0.137 SA
HETATM    3  C2  BTN A 300      11.697  10.429   9.447  1.00 17.74     0.072 C 
HETATM    4  N2  BTN A 300      11.454  10.821   6.998  1.00 17.92    -0.217 NA
HETATM    5  C3  BTN A 300      11.560   9.858   6.056  1.00 17.95     0.360 A 
HETATM    6  O3  BTN A 300      12.116  10.052   4.953  1.00 17.93    -0.243 OA
HETATM    7  C4  BTN A 300      10.778  10.350   8.205  1.00 17.65     0.141 A 
HETATM    8  C5  BTN A 300      10.447   8.899   7.869  1.00 17.47     0.142 A 
HETATM    9  C6  BTN A 300      11.141   7.998   8.886  1.00 17.06     0.084 C 
ENDROOT
BRANCH   3  10
HETATM   10  C7  BTN A 300      12.363  11.744   9.503  1.00 18.33     0.013 C 
BRANCH  10  11
HETATM   11  C8  BTN A 300      13.878  11.928   9.428  1.00 19.24     0.002 C 
BRANCH  11  12
HETATM   12  C9  BTN A 300      14.408  13.078  10.185  1.00 20.09     0.011 C 
BRANCH  12  13
HETATM   13  C10 BTN A 300      14.738  12.733  11.679  1.00 20.77     0.098 C 
BRANCH  13  14
HETATM   14  C11 BTN A 300      16.102  13.197  12.050  1.00 21.57     0.185 C 
HETATM   15  O11 BTN A 300      16.786  13.996  11.397  1.00 21.65    -0.647 OA
HETATM   16  O12 BTN A 300      16.757  12.345  12.815  1.00 22.67    -0.647 OA
ENDBRANCH  13  14
ENDBRANCH  12  13
ENDBRANCH  11  12
ENDBRANCH  10  11
ENDBRANCH   3  10
TORSDOF 5
ENDMDL
MODEL 5
REMARK VINA RESULT:    -4.301     15.215     16.879
REMARK INTER + INTRA:          -5.766
REMARK INTER:                  -5.570
REMARK INTRA:                  -0.196
REMARK UNBOUND:                -0.208
REMARK  5 active torsions:
REMARK  status: ('A' for Active; 'I' for Inactive)
REMARK    1  A    between atoms: C2_3  and  C7_10 
REMARK    2  A    between atoms: C7_10  and  C8_11 
REMARK    3  A    between atoms: C8_11  and  C9_12 
REMARK    4  A    between atoms: C9_12  and  C10_13 
REMARK    5  A    between atoms: C10_13  and  C11_14 
ROOT
HETATM    1  N1  BTN A 300      25.286   9.813  13.607  1.00 17.73    -0.217 NA
HETATM    2  S1  BTN A 300      25.423   7.632  16.102  1.00 16.59    -0.137 SA
HETATM    3  C2  BTN A 300      26.055   6.628  14.697  1.00 17.74     0.072 C 
HETATM    4  N2  BTN A 300      24.867   7.807  12.851  1.00 17.92    -0.217 NA
HETATM    5  C3  BTN A 300      24.401   9.074  12.928  1.00 17.95     0.360 A 
HETATM    6  O3  BTN A 300      23.314   9.425  12.422  1.00 17.93    -0.243 OA
HETATM    7  C4  BTN A 300      26.150   7.641  13.532  1.00 17.65     0.141 A 
HETATM    8  C5  BTN A 300      26.444   9.042  14.057  1.00 17.47     0.142 A 
HETATM    9  C6  BTN A 300      26.551   8.976  15.577  1.00 17.06     0.084 C 
ENDROOT
BRANCH   3  10
HETATM   10  C7  BTN A 300      25.350   5.409  14.255  1.00 18.33     0.013 C 
BRANCH  10  11
HETATM   11  C8  BTN A 300      24.641   4.450  15.210  1.00 19.24     0.002 C 
BRANCH  11  12
HETATM   12  C9  BTN A 300      23.285   4.042  14.796  1.00 20.09     0.011 C 
BRANCH  12  13
HETATM   13  C10 BTN A 300      23.227   2.582  14.225  1.00 20.77     0.098 C 
BRANCH  13  14
HETATM   14  C11 BTN A 300      21.843   2.040  14.271  1.00 21.57     0.185 C 
HETATM   15  O11 BTN A 300      21.264   1.649  15.294  1.00 21.65    -0.647 OA
HETATM   16  O12 BTN A 300      21.446   1.513  13.130  1.00 22.67    -0.647 OA
ENDBRANCH  13  14
ENDBRANCH  12  13
ENDBRANCH  11  12
ENDBRANCH  10  11
ENDBRANCH   3  10
TORSDOF 5
ENDMDL
MODEL 6
REMARK VINA RESULT:    -4.292     15.946     17.176
REMARK INTER + INTRA:          -5.755
REMARK INTER:                  -5.408
REMARK INTRA:                  -0.348
REMARK UNBOUND:                -0.208
REMARK  5 active torsions:
REMARK  status: ('A' for Active; 'I' for Inactive)
REMARK    1  A    between atoms: C2_3  and  C7_10 
REMARK    2  A    between atoms: C7_10  and  C8_11 
REMARK    3  A    between atoms: C8_11  and  C9_12 
REMARK    4  A    between atoms: C9_12  and  C10_13 
REMARK    5  A    between atoms: C10_13  and  C11_14 
ROOT
HETATM    1  N1  BTN A 300      22.250   1.912  19.395  1.00 17.73    -0.217 NA
HETATM    2  S1  BTN A 300      24.121   2.653  16.757  1.00 16.59    -0.137 SA
HETATM    3  C2  BTN A 300      22.425   2.752  16.050  1.00 17.74     0.072 C 
HETATM    4  N2  BTN A 300      21.302   1.142  17.584  1.00 17.92    -0.217 NA
HETATM    5  C3  BTN A 300      21.758   0.812  18.813  1.00 17.95     0.360 A 
HETATM    6  O3  BTN A 300      21.694  -0.351  19.267  1.00 17.93    -0.243 OA
HETATM    7  C4  BTN A 300      21.502   2.557  17.276  1.00 17.65     0.141 A 
HETATM    8  C5  BTN A 300      22.162   3.095  18.541  1.00 17.47     0.142 A 
HETATM    9  C6  BTN A 300      23.530   3.656  18.171  1.00 17.06     0.084 C 
ENDROOT
BRANCH   3  10
HETATM   10  C7  BTN A 300      22.007   1.863  14.950  1.00 18.33     0.013 C 
BRANCH  10  11
HETATM   11  C8  BTN A 300      22.972   1.281  13.920  1.00 19.24     0.002 C 
BRANCH  11  12
HETATM   12  C9  BTN A 300      22.567  -0.016  13.344  1.00 20.09     0.011 C 
BRANCH  12  13
HETATM   13  C10 BTN A 300      21.328  -0.652  14.064  1.00 20.77     0.098 C 
BRANCH  13  14
HETATM   14  C11 BTN A 300      20.150  -0.710  13.158  1.00 21.57     0.185 C 
HETATM   15  O11 BTN A 300      19.419   0.249  12.876  1.00 21.65    -0.647 OA
HETATM   16  O12 BTN A 300      19.608  -1.910  13.075  1.00 22.67    -0.647 OA
ENDBRANCH  13  14
ENDBRANCH  12  13
ENDBRANCH  11  12
ENDBRANCH  10  11
ENDBRANCH   3  10
TORSDOF 5
ENDMDL
MODEL 7
REMARK VINA RESULT:    -4.278     16.088     17.282
REMARK INTER + INTRA:          -5.737
REMARK INTER:                  -5.297
REMARK INTRA:                  -0.440
REMARK UNBOUND:                -0.208
REMARK  5 active torsions:
REMARK  status: ('A' for Active; 'I' for Inactive)
REMARK    1  A    between atoms: C2_3  and  C7_10 
REMARK    2  A    between atoms: C7_10  and  C8_11 
REMARK    3  A    between atoms: C8_11  and  C9_12 
REMARK    4  A    between atoms: C9_12  and  C10_13 
REMARK    5  A    between atoms: C10_13  and  C11_14 
ROOT
HETATM    1  N1  BTN A 300      20.378  -0.898  14.715  1.00 17.73    -0.217 NA
HETATM    2  S1  BTN A 300      23.453  -0.074  15.650  1.00 16.59    -0.137 SA
HETATM    3  C2  BTN A 300      22.740   1.569  15.227  1.00 17.74     0.072 C 
HETATM    4  N2  BTN A 300      21.068   0.811  13.543  1.00 17.92    -0.217 NA
HETATM    5  C3  BTN A 300      20.569  -0.443  13.472  1.00 17.95     0.360 A 
HETATM    6  O3  BTN A 300      20.345  -1.019  12.385  1.00 17.93    -0.243 OA
HETATM    7  C4  BTN A 300      21.256   1.260  14.921  1.00 17.65     0.141 A 
HETATM    8  C5  BTN A 300      20.772   0.068  15.740  1.00 17.47     0.142 A 
HETATM    9  C6  BTN A 300      21.928  -0.428  16.601  1.00 17.06     0.084 C 
ENDROOT
BRANCH   3  10
HETATM   10  C7  BTN A 300      23.320   2.395  14.151  1.00 18.33     0.013 C 
BRANCH  10  11
HETATM   11  C8  BTN A 300      24.750   2.932  14.176  1.00 19.24     0.002 C 
BRANCH  11  12
HETATM   12  C9  BTN A 300      25.606   2.487  13.059  1.00 20.09     0.011 C 
BRANCH  12  13
HETATM   13  C10 BTN A 300      26.071   0.996  13.194  1.00 20.77     0.098 C 
BRANCH  13  14
HETATM   14  C11 BTN A 300      25.502   0.153  12.109  1.00 21.57     0.185 C 
HETATM   15  O11 BTN A 300      24.495  -0.560  12.214  1.00 21.65    -0.647 OA
HETATM   16  O12 BTN A 300      26.388  -0.206  11.201  1.00 22.67    -0.647 OA
ENDBRANCH  13  14
ENDBRANCH  12  13
ENDBRANCH  11  12
ENDBRANCH  10  11
ENDBRANCH   3  10
TORSDOF 5
ENDMDL
MODEL 8
REMARK VINA RESULT:    -4.231     16.379     17.635
REMARK INTER + INTRA:          -5.676
REMARK INTER:                  -5.338
REMARK INTRA:                  -0.338
REMARK UNBOUND:                -0.208
REMARK  5 active torsions:
REMARK  status: ('A' for Active; 'I' for Inactive)
REMARK    1  A    between atoms: C2_3  and  C7_10 
REMARK    2  A    between atoms: C7_10  and  C8_11 
REMARK    3  A    between atoms: C8_11  and  C9_12 
REMARK    4  A    between atoms: C9_12  and  C10_13 
REMARK    5  A    between atoms: C10_13  and  C11_14 
ROOT
HETATM    1  N1  BTN A 300      21.847  -1.369  18.193  1.00 17.73    -0.217 NA
HETATM    2  S1  BTN A 300      22.582   1.649  17.029  1.00 16.59    -0.137 SA
HETATM    3  C2  BTN A 300      20.918   1.364  16.299  1.00 17.74     0.072 C 
HETATM    4  N2  BTN A 300      20.991  -1.125  16.199  1.00 17.92    -0.217 NA
HETATM    5  C3  BTN A 300      21.793  -1.897  16.966  1.00 17.95     0.360 A 
HETATM    6  O3  BTN A 300      22.357  -2.924  16.530  1.00 17.93    -0.243 OA
HETATM    7  C4  BTN A 300      20.462   0.026  16.928  1.00 17.65     0.141 A 
HETATM    8  C5  BTN A 300      21.057  -0.146  18.322  1.00 17.47     0.142 A 
HETATM    9  C6  BTN A 300      21.914   1.076  18.635  1.00 17.06     0.084 C 
ENDROOT
BRANCH   3  10
HETATM   10  C7  BTN A 300      20.725   1.330  14.837  1.00 18.33     0.013 C 
BRANCH  10  11
HETATM   11  C8  BTN A 300      21.844   1.587  13.830  1.00 19.24     0.002 C 
BRANCH  11  12
HETATM   12  C9  BTN A 300      22.691   0.419  13.522  1.00 20.09     0.011 C 
BRANCH  12  13
HETATM   13  C10 BTN A 300      24.224   0.711  13.670  1.00 20.77     0.098 C 
BRANCH  13  14
HETATM   14  C11 BTN A 300      24.950   0.438  12.401  1.00 21.57     0.185 C 
HETATM   15  O11 BTN A 300      25.245   1.289  11.551  1.00 21.65    -0.647 OA
HETATM   16  O12 BTN A 300      24.815  -0.802  11.973  1.00 22.67    -0.647 OA
ENDBRANCH  13  14
ENDBRANCH  12  13
ENDBRANCH  11  12
ENDBRANCH  10  11
ENDBRANCH   3  10
TORSDOF 5
ENDMDL
MODEL 9
REMARK VINA RESULT:    -4.181     16.174     17.356
REMARK INTER + INTRA:          -5.612
REMARK INTER:                  -5.211
REMARK INTRA:                  -0.401
REMARK UNBOUND:                -0.208
REMARK  5 active torsions:
REMARK  status: ('A' for Active; 'I' for Inactive)
REMARK    1  A    between atoms: C2_3  and  C7_10 
REMARK    2  A    between atoms: C7_10  and  C8_11 
REMARK    3  A    between atoms: C8_11  and  C9_12 
REMARK    4  A    between atoms: C9_12  and  C10_13 
REMARK    5  A    between atoms: C10_13  and  C11_14 
ROOT
HETATM    1  N1  BTN A 300      22.396   1.551  19.440  1.00 17.73    -0.217 NA
HETATM    2  S1  BTN A 300      20.578  -0.105  17.213  1.00 16.59    -0.137 SA
HETATM    3  C2  BTN A 300      21.878   0.644  16.149  1.00 17.74     0.072 C 
HETATM    4  N2  BTN A 300      22.381   2.643  17.549  1.00 17.92    -0.217 NA
HETATM    5  C3  BTN A 300      22.126   2.732  18.873  1.00 17.95     0.360 A 
HETATM    6  O3  BTN A 300      21.710   3.781  19.411  1.00 17.93    -0.243 OA
HETATM    7  C4  BTN A 300      22.842   1.312  17.157  1.00 17.65     0.141 A 
HETATM    8  C5  BTN A 300      22.855   0.550  18.478  1.00 17.47     0.142 A 
HETATM    9  C6  BTN A 300      21.902  -0.635  18.362  1.00 17.06     0.084 C 
ENDROOT
BRANCH   3  10
HETATM   10  C7  BTN A 300      21.528   1.592  15.074  1.00 18.33     0.013 C 
BRANCH  10  11
HETATM   11  C8  BTN A 300      21.829   1.345  13.597  1.00 19.24     0.002 C 
BRANCH  11  12
HETATM   12  C9  BTN A 300      21.609  -0.039  13.136  1.00 20.09     0.011 C 
BRANCH  12  13
HETATM   13  C10 BTN A 300      20.113  -0.497  13.245  1.00 20.77     0.098 C 
BRANCH  13  14
HETATM   14  C11 BTN A 300      20.013  -1.909  13.700  1.00 21.57     0.185 C 
HETATM   15  O11 BTN A 300      20.937  -2.563  14.203  1.00 21.65    -0.647 OA
HETATM   16  O12 BTN A 300      19.070  -2.595  13.084  1.00 22.67    -0.647 OA
ENDBRANCH  13  14
ENDBRANCH  12  13
ENDBRANCH  11  12
ENDBRANCH  10  11
ENDBRANCH   3  10
TORSDOF 5
ENDMDL
