MODEL 1
REMARK VINA RESULT:    -4.585      0.000      0.000
REMARK INTER + INTRA:          -6.128
REMARK INTER:                  -5.925
REMARK INTRA:                  -0.203
REMARK UNBOUND:                -0.203
REMARK  5 active torsions:
REMARK  status: ('A' for Active; 'I' for Inactive)
REMARK    1  A    between atoms: C2_3  and  C7_10 
REMARK    2  A    between atoms: C7_10  and  C8_11 
REMARK    3  A    between atoms: C8_11  and  C9_12 
REMARK    4  A    between atoms: C9_12  and  C10_13 
REMARK    5  A    between atoms: C10_13  and  C11_14 
ROOT
HETATM    1  N1  BTN A 300      20.593  -0.485  15.139  1.00 17.73    -0.217 NA
HETATM    2  S1  BTN A 300      23.813   0.243  14.813  1.00 16.59    -0.137 SA
HETATM    3  C2  BTN A 300      23.114   1.868  15.317  1.00 17.74     0.072 C 
HETATM    4  N2  BTN A 300      20.812   1.564  14.414  1.00 17.92    -0.217 NA
HETATM    5  C3  BTN A 300      20.240   0.364  14.167  1.00 17.95     0.360 A 
HETATM    6  O3  BTN A 300      19.510   0.157  13.174  1.00 17.93    -0.243 OA
HETATM    7  C4  BTN A 300      21.631   1.553  15.625  1.00 17.65     0.141 A 
HETATM    8  C5  BTN A 300      21.476   0.123  16.132  1.00 17.47     0.142 A 
HETATM    9  C6  BTN A 300      22.855  -0.528  16.170  1.00 17.06     0.084 C 
ENDROOT
BRANCH   3  10
HETATM   10  C7  BTN A 300      23.212   3.045  14.433  1.00 18.33     0.013 C 
BRANCH  10  11
HETATM   11  C8  BTN A 300      23.563   4.447  14.927  1.00 19.24     0.002 C 
BRANCH  11  12
HETATM   12  C9  BTN A 300      24.956   4.867  14.680  1.00 20.09     0.011 C 
BRANCH  12  13
HETATM   13  C10 BTN A 300      25.184   6.404  14.894  1.00 20.77     0.098 C 
BRANCH  13  14
HETATM   14  C11 BTN A 300      25.448   7.095  13.603  1.00 21.57     0.185 C 
HETATM   15  O11 BTN A 300      24.631   7.792  12.987  1.00 21.65    -0.647 OA
HETATM   16  O12 BTN A 300      26.398   6.526  12.887  1.00 22.67    -0.647 OA
ENDBRANCH  13  14
ENDBRANCH  12  13
ENDBRANCH  11  12
ENDBRANCH  10  11
ENDBRANCH   3  10
TORSDOF 5
ENDMDL
MODEL 2
REMARK VINA RESULT:    -4.551     17.179     18.220
REMARK INTER + INTRA:          -6.085
REMARK INTER:                  -5.873
REMARK INTRA:                  -0.212
REMARK UNBOUND:                -0.203
REMARK  5 active torsions:
REMARK  status: ('A' for Active; 'I' for Inactive)
REMARK    1  A    between atoms: C2_3  and  C7_10 
REMARK    2  A    between atoms: C7_10  and  C8_11 
REMARK    3  A    between atoms: C8_11  and  C9_12 
REMARK    4  A    between atoms: C9_12  and  C10_13 
REMARK    5  A    between atoms: C10_13  and  C11_14 
ROOT
HETATM    1  N1  BTN A 300       9.069  10.510   0.900  1.00 17.73    -0.217 NA
HETATM    2  S1  BTN A 300       9.076  11.636   4.020  1.00 16.59    -0.137 SA
HETATM    3  C2  BTN A 300      10.867  11.689   3.602  1.00 17.74     0.072 C 
HETATM    4  N2  BTN A 300      10.894   9.861   1.910  1.00 17.92    -0.217 NA
HETATM    5  C3  BTN A 300       9.810   9.442   1.219  1.00 17.95     0.360 A 
HETATM    6  O3  BTN A 300       9.601   8.239   0.956  1.00 17.93    -0.243 OA
HETATM    7  C4  BTN A 300      10.908  11.309   2.103  1.00 17.65     0.141 A 
HETATM    8  C5  BTN A 300       9.635  11.763   1.396  1.00 17.47     0.142 A 
HETATM    9  C6  BTN A 300       8.734  12.452   2.416  1.00 17.06     0.084 C 
ENDROOT
BRANCH   3  10
HETATM   10  C7  BTN A 300      11.847  10.887   4.358  1.00 18.33     0.013 C 
BRANCH  10  11
HETATM   11  C8  BTN A 300      11.466   9.925   5.481  1.00 19.24     0.002 C 
BRANCH  11  12
HETATM   12  C9  BTN A 300      11.950  10.304   6.822  1.00 20.09     0.011 C 
BRANCH  12  13
HETATM   13  C10 BTN A 300      12.101   9.081   7.792  1.00 20.77     0.098 C 
BRANCH  13  14
HETATM   14  C11 BTN A 300      13.056   9.380   8.892  1.00 21.57     0.185 C 
HETATM   15  O11 BTN A 300      13.119   8.769   9.968  1.00 21.65    -0.647 OA
HETATM   16  O12 BTN A 300      13.481  10.629   8.896  1.00 22.67    -0.647 OA
ENDBRANCH  13  14
ENDBRANCH  12  13
ENDBRANCH  11  12
ENDBRANCH  10  11
ENDBRANCH   3  10
TORSDOF 5
ENDMDL
MODEL 3
REMARK VINA RESULT:    -4.540     12.431     13.168
REMARK INTER + INTRA:          -6.070
REMARK INTER:                  -5.858
REMARK INTRA:                  -0.212
REMARK UNBOUND:                -0.203
REMARK  5 active torsions:
REMARK  status: ('A' for Active; 'I' for Inactive)
REMARK    1  A    between atoms: C2_3  and  C7_10 
REMARK    2  A    between atoms: C7_10  and  C8_11 
REMARK    3  A    between atoms: C8_11  and  C9_12 
REMARK    4  A    between atoms: C9_12  and  C10_13 
REMARK    5  A    between atoms: C10_13  and  C11_14 
ROOT
HETATM    1  N1  BTN A 300      27.020  -7.801   3.249  1.00 17.73    -0.217 NA
HETATM    2  S1  BTN A 300      29.266  -5.372   3.481  1.00 16.59    -0.137 SA
HETATM    3  C2  BTN A 300      28.332  -5.165   5.052  1.00 17.74     0.072 C 
HETATM    4  N2  BTN A 300      26.147  -6.093   4.295  1.00 17.92    -0.217 NA
HETATM    5  C3  BTN A 300      25.997  -6.939   3.251  1.00 17.95     0.360 A 
HETATM    6  O3  BTN A 300      25.033  -6.868   2.459  1.00 17.93    -0.243 OA
HETATM    7  C4  BTN A 300      27.359  -6.367   5.065  1.00 17.65     0.141 A 
HETATM    8  C5  BTN A 300      27.967  -7.562   4.336  1.00 17.47     0.142 A 
HETATM    9  C6  BTN A 300      29.351  -7.167   3.833  1.00 17.06     0.084 C 
ENDROOT
BRANCH   3  10
HETATM   10  C7  BTN A 300      27.602  -3.916   5.343  1.00 18.33     0.013 C 
BRANCH  10  11
HETATM   11  C8  BTN A 300      28.138  -2.817   6.258  1.00 19.24     0.002 C 
BRANCH  11  12
HETATM   12  C9  BTN A 300      27.244  -2.431   7.366  1.00 20.09     0.011 C 
BRANCH  12  13
HETATM   13  C10 BTN A 300      27.943  -2.480   8.769  1.00 20.77     0.098 C 
BRANCH  13  14
HETATM   14  C11 BTN A 300      26.978  -2.849   9.839  1.00 21.57     0.185 C 
HETATM   15  O11 BTN A 300      27.240  -3.553  10.824  1.00 21.65    -0.647 OA
HETATM   16  O12 BTN A 300      25.720  -2.834   9.443  1.00 22.67    -0.647 OA
ENDBRANCH  13  14
ENDBRANCH  12  13
ENDBRANCH  11  12
ENDBRANCH  10  11
ENDBRANCH   3  10
TORSDOF 5
ENDMDL
MODEL 4
REMARK VINA RESULT:    -4.444      3.683      7.308
REMARK INTER + INTRA:          -5.947
REMARK INTER:                  -5.748
REMARK INTRA:                  -0.199
REMARK UNBOUND:                -0.203
REMARK  5 active torsions:
REMARK  status: ('A' for Active; 'I' for Inactive)
REMARK    1  A    between atoms: C2_3  and  C7_10 
REMARK    2  A    between atoms: C7_10  and  C8_11 
REMARK    3  A    between atoms: C8_11  and  C9_12 
REMARK    4  A    between atoms: C9_12  and  C10_13 
REMARK    5  A    between atoms: C10_13  and  C11_14 
ROOT
HETATM    1  N1  BTN A 300      24.880   9.201  14.124  1.00 17.73    -0.217 NA
HETATM    2  S1  BTN A 300      23.268   7.411  16.403  1.00 16.59    -0.137 SA
HETATM    3  C2  BTN A 300      24.429   6.166  15.707  1.00 17.74     0.072 C 
HETATM    4  N2  BTN A 300      24.675   7.141  13.427  1.00 17.92    -0.217 NA
HETATM    5  C3  BTN A 300      24.437   8.436  13.120  1.00 17.95     0.360 A 
HETATM    6  O3  BTN A 300      23.890   8.786  12.052  1.00 17.93    -0.243 OA
HETATM    7  C4  BTN A 300      25.310   6.986  14.735  1.00 17.65     0.141 A 
HETATM    8  C5  BTN A 300      25.456   8.424  15.220  1.00 17.47     0.142 A 
HETATM    9  C6  BTN A 300      24.675   8.577  16.521  1.00 17.06     0.084 C 
ENDROOT
BRANCH   3  10
HETATM   10  C7  BTN A 300      23.929   4.950  15.038  1.00 18.33     0.013 C 
BRANCH  10  11
HETATM   11  C8  BTN A 300      23.346   3.753  15.786  1.00 19.24     0.002 C 
BRANCH  11  12
HETATM   12  C9  BTN A 300      23.342   2.484  15.033  1.00 20.09     0.011 C 
BRANCH  12  13
HETATM   13  C10 BTN A 300      22.118   2.346  14.063  1.00 20.77     0.098 C 
BRANCH  13  14
HETATM   14  C11 BTN A 300      21.254   1.198  14.446  1.00 21.57     0.185 C 
HETATM   15  O11 BTN A 300      20.015   1.211  14.459  1.00 21.65    -0.647 OA
HETATM   16  O12 BTN A 300      21.844   0.341  15.257  1.00 22.67    -0.647 OA
ENDBRANCH  13  14
ENDBRANCH  12  13
ENDBRANCH  11  12
ENDBRANCH  10  11
ENDBRANCH   3  10
TORSDOF 5
ENDMDL
MODEL 5
REMARK VINA RESULT:    -4.428     15.611     16.728
REMARK INTER + INTRA:          -5.926
REMARK INTER:                  -5.722
REMARK INTRA:                  -0.204
REMARK UNBOUND:                -0.203
REMARK  5 active torsions:
REMARK  status: ('A' for Active; 'I' for Inactive)
REMARK    1  A    between atoms: C2_3  and  C7_10 
REMARK    2  A    between atoms: C7_10  and  C8_11 
REMARK    3  A    between atoms: C8_11  and  C9_12 
REMARK    4  A    between atoms: C9_12  and  C10_13 
REMARK    5  A    between atoms: C10_13  and  C11_14 
ROOT
HETATM    1  N1  BTN A 300      11.269   7.947   9.619  1.00 17.73    -0.217 NA
HETATM    2  S1  BTN A 300       9.510  10.177   7.904  1.00 16.59    -0.137 SA
HETATM    3  C2  BTN A 300      10.698   9.581   6.631  1.00 17.74     0.072 C 
HETATM    4  N2  BTN A 300      12.558   8.928   8.155  1.00 17.92    -0.217 NA
HETATM    5  C3  BTN A 300      12.406   8.635   9.465  1.00 17.95     0.360 A 
HETATM    6  O3  BTN A 300      13.234   8.980  10.335  1.00 17.93    -0.243 OA
HETATM    7  C4  BTN A 300      11.452   8.431   7.339  1.00 17.65     0.141 A 
HETATM    8  C5  BTN A 300      10.553   7.744   8.361  1.00 17.47     0.142 A 
HETATM    9  C6  BTN A 300       9.190   8.427   8.343  1.00 17.06     0.084 C 
ENDROOT
BRANCH   3  10
HETATM   10  C7  BTN A 300      11.658  10.505   5.996  1.00 18.33     0.013 C 
BRANCH  10  11
HETATM   11  C8  BTN A 300      11.306  11.412   4.820  1.00 19.24     0.002 C 
BRANCH  11  12
HETATM   12  C9  BTN A 300      11.391  10.778   3.490  1.00 20.09     0.011 C 
BRANCH  12  13
HETATM   13  C10 BTN A 300      10.080  10.021   3.082  1.00 20.77     0.098 C 
BRANCH  13  14
HETATM   14  C11 BTN A 300      10.127   9.589   1.660  1.00 21.57     0.185 C 
HETATM   15  O11 BTN A 300      10.091   8.414   1.270  1.00 21.65    -0.647 OA
HETATM   16  O12 BTN A 300      10.723  10.457   0.865  1.00 22.67    -0.647 OA
ENDBRANCH  13  14
ENDBRANCH  12  13
ENDBRANCH  11  12
ENDBRANCH  10  11
ENDBRANCH   3  10
TORSDOF 5
ENDMDL
MODEL 6
REMARK VINA RESULT:    -4.406     15.545     16.405
REMARK INTER + INTRA:          -5.897
REMARK INTER:                  -5.676
REMARK INTRA:                  -0.221
REMARK UNBOUND:                -0.203
REMARK  5 active torsions:
REMARK  status: ('A' for Active; 'I' for Inactive)
REMARK    1  A    between atoms: C2_3  and  C7_10 
REMARK    2  A    between atoms: C7_10  and  C8_11 
REMARK    3  A    between atoms: C8_11  and  C9_12 
REMARK    4  A    between atoms: C9_12  and  C10_13 
REMARK    5  A    between atoms: C10_13  and  C11_14 
ROOT
HETATM    1  N1  BTN A 300      10.345   7.306   9.339  1.00 17.73    -0.217 NA
HETATM    2  S1  BTN A 300      12.745   9.491   8.655  1.00 16.59    -0.137 SA
HETATM    3  C2  BTN A 300      11.466   9.944   7.414  1.00 17.74     0.072 C 
HETATM    4  N2  BTN A 300      10.374   7.715   7.194  1.00 17.92    -0.217 NA
HETATM    5  C3  BTN A 300      10.430   6.741   8.130  1.00 17.95     0.360 A 
HETATM    6  O3  BTN A 300      10.541   5.531   7.838  1.00 17.93    -0.243 OA
HETATM    7  C4  BTN A 300      10.259   9.048   7.782  1.00 17.65     0.141 A 
HETATM    8  C5  BTN A 300      10.237   8.763   9.280  1.00 17.47     0.142 A 
HETATM    9  C6  BTN A 300      11.426   9.467   9.925  1.00 17.06     0.084 C 
ENDROOT
BRANCH   3  10
HETATM   10  C7  BTN A 300      11.744   9.854   5.968  1.00 18.33     0.013 C 
BRANCH  10  11
HETATM   11  C8  BTN A 300      11.101  10.767   4.925  1.00 19.24     0.002 C 
BRANCH  11  12
HETATM   12  C9  BTN A 300      12.006  11.231   3.856  1.00 20.09     0.011 C 
BRANCH  12  13
HETATM   13  C10 BTN A 300      11.259  11.971   2.693  1.00 20.77     0.098 C 
BRANCH  13  14
HETATM   14  C11 BTN A 300      11.204  11.130   1.467  1.00 21.57     0.185 C 
HETATM   15  O11 BTN A 300      10.832   9.949   1.428  1.00 21.65    -0.647 OA
HETATM   16  O12 BTN A 300      12.042  11.517   0.525  1.00 22.67    -0.647 OA
ENDBRANCH  13  14
ENDBRANCH  12  13
ENDBRANCH  11  12
ENDBRANCH  10  11
ENDBRANCH   3  10
TORSDOF 5
ENDMDL
MODEL 7
REMARK VINA RESULT:    -4.397      4.338      5.559
REMARK INTER + INTRA:          -5.886
REMARK INTER:                  -5.464
REMARK INTRA:                  -0.422
REMARK UNBOUND:                -0.203
REMARK  5 active torsions:
REMARK  status: ('A' for Active; 'I' for Inactive)
REMARK    1  A    between atoms: C2_3  and  C7_10 
REMARK    2  A    between atoms: C7_10  and  C8_11 
REMARK    3  A    between atoms: C8_11  and  C9_12 
REMARK    4  A    between atoms: C9_12  and  C10_13 
REMARK    5  A    between atoms: C10_13  and  C11_14 
ROOT
HETATM    1  N1  BTN A 300      22.111  -2.046  18.254  1.00 17.73    -0.217 NA
HETATM    2  S1  BTN A 300      23.508   0.901  17.647  1.00 16.59    -0.137 SA
HETATM    3  C2  BTN A 300      21.733   1.258  17.323  1.00 17.74     0.072 C 
HETATM    4  N2  BTN A 300      21.023  -1.035  16.653  1.00 17.92    -0.217 NA
HETATM    5  C3  BTN A 300      21.676  -2.168  16.995  1.00 17.95     0.360 A 
HETATM    6  O3  BTN A 300      21.810  -3.132  16.211  1.00 17.93    -0.243 OA
HETATM    7  C4  BTN A 300      21.013  -0.049  17.732  1.00 17.65     0.141 A 
HETATM    8  C5  BTN A 300      21.770  -0.756  18.851  1.00 17.47     0.142 A 
HETATM    9  C6  BTN A 300      23.001   0.074  19.201  1.00 17.06     0.084 C 
ENDROOT
BRANCH   3  10
HETATM   10  C7  BTN A 300      21.276   1.695  15.990  1.00 18.33     0.013 C 
BRANCH  10  11
HETATM   11  C8  BTN A 300      22.212   1.901  14.801  1.00 19.24     0.002 C 
BRANCH  11  12
HETATM   12  C9  BTN A 300      21.690   1.433  13.503  1.00 20.09     0.011 C 
BRANCH  12  13
HETATM   13  C10 BTN A 300      21.693  -0.129  13.363  1.00 20.77     0.098 C 
BRANCH  13  14
HETATM   14  C11 BTN A 300      20.310  -0.662  13.235  1.00 21.57     0.185 C 
HETATM   15  O11 BTN A 300      20.019  -1.846  13.021  1.00 21.65    -0.647 OA
HETATM   16  O12 BTN A 300      19.432   0.242  12.847  1.00 22.67    -0.647 OA
ENDBRANCH  13  14
ENDBRANCH  12  13
ENDBRANCH  11  12
ENDBRANCH  10  11
ENDBRANCH   3  10
TORSDOF 5
ENDMDL
MODEL 8
REMARK VINA RESULT:    -4.303      1.861      2.266
REMARK INTER + INTRA:          -5.763
REMARK INTER:                  -5.537
REMARK INTRA:                  -0.226
REMARK UNBOUND:                -0.203
REMARK  5 active torsions:
REMARK  status: ('A' for Active; 'I' for Inactive)
REMARK    1  A    between atoms: C2_3  and  C7_10 
REMARK    2  A    between atoms: C7_10  and  C8_11 
REMARK    3  A    between atoms: C8_11  and  C9_12 
REMARK    4  A    between atoms: C9_12  and  C10_13 
REMARK    5  A    between atoms: C10_13  and  C11_14 
ROOT
HETATM    1  N1  BTN A 300      20.640  -1.036  14.395  1.00 17.73    -0.217 NA
HETATM    2  S1  BTN A 300      23.850  -0.344  13.926  1.00 16.59    -0.137 SA
HETATM    3  C2  BTN A 300      23.274   1.155  14.822  1.00 17.74     0.072 C 
HETATM    4  N2  BTN A 300      20.890   1.113  14.098  1.00 17.92    -0.217 NA
HETATM    5  C3  BTN A 300      20.244   0.010  13.661  1.00 17.95     0.360 A 
HETATM    6  O3  BTN A 300      19.422   0.038  12.720  1.00 17.93    -0.243 OA
HETATM    7  C4  BTN A 300      21.810   0.823  15.196  1.00 17.65     0.141 A 
HETATM    8  C5  BTN A 300      21.633  -0.677  15.406  1.00 17.47     0.142 A 
HETATM    9  C6  BTN A 300      22.978  -1.359  15.176  1.00 17.06     0.084 C 
ENDROOT
BRANCH   3  10
HETATM   10  C7  BTN A 300      23.350   2.490  14.199  1.00 18.33     0.013 C 
BRANCH  10  11
HETATM   11  C8  BTN A 300      24.194   3.635  14.753  1.00 19.24     0.002 C 
BRANCH  11  12
HETATM   12  C9  BTN A 300      25.619   3.605  14.372  1.00 20.09     0.011 C 
BRANCH  12  13
HETATM   13  C10 BTN A 300      25.892   2.781  13.067  1.00 20.77     0.098 C 
BRANCH  13  14
HETATM   14  C11 BTN A 300      26.973   3.401  12.254  1.00 21.57     0.185 C 
HETATM   15  O11 BTN A 300      26.987   4.577  11.865  1.00 21.65    -0.647 OA
HETATM   16  O12 BTN A 300      27.655   2.532  11.533  1.00 22.67    -0.647 OA
ENDBRANCH  13  14
ENDBRANCH  12  13
ENDBRANCH  11  12
ENDBRANCH  10  11
ENDBRANCH   3  10
TORSDOF 5
ENDMDL
MODEL 9
REMARK VINA RESULT:    -4.275      4.155      5.292
REMARK INTER + INTRA:          -5.727
REMARK INTER:                  -5.280
REMARK INTRA:                  -0.447
REMARK UNBOUND:                -0.203
REMARK  5 active torsions:
REMARK  status: ('A' for Active; 'I' for Inactive)
REMARK    1  A    between atoms: C2_3  and  C7_10 
REMARK    2  A    between atoms: C7_10  and  C8_11 
REMARK    3  A    between atoms: C8_11  and  C9_12 
REMARK    4  A    between atoms: C9_12  and  C10_13 
REMARK    5  A    between atoms: C10_13  and  C11_14 
ROOT
HETATM    1  N1  BTN A 300      21.323  -1.109  13.231  1.00 17.73    -0.217 NA
HETATM    2  S1  BTN A 300      23.782   1.065  13.711  1.00 16.59    -0.137 SA
HETATM    3  C2  BTN A 300      22.948   1.079  15.351  1.00 17.74     0.072 C 
HETATM    4  N2  BTN A 300      20.656   0.463  14.593  1.00 17.92    -0.217 NA
HETATM    5  C3  BTN A 300      20.381  -0.182  13.437  1.00 17.95     0.360 A 
HETATM    6  O3  BTN A 300      19.389   0.095  12.730  1.00 17.93    -0.243 OA
HETATM    7  C4  BTN A 300      21.876  -0.029  15.230  1.00 17.65     0.141 A 
HETATM    8  C5  BTN A 300      22.341  -1.129  14.281  1.00 17.47     0.142 A 
HETATM    9  C6  BTN A 300      23.728  -0.765  13.762  1.00 17.06     0.084 C 
ENDROOT
BRANCH   3  10
HETATM   10  C7  BTN A 300      22.345   2.314  15.886  1.00 18.33     0.013 C 
BRANCH  10  11
HETATM   11  C8  BTN A 300      22.071   2.547  17.371  1.00 19.24     0.002 C 
BRANCH  11  12
HETATM   12  C9  BTN A 300      23.035   1.916  18.293  1.00 20.09     0.011 C 
BRANCH  12  13
HETATM   13  C10 BTN A 300      22.347   1.099  19.441  1.00 20.77     0.098 C 
BRANCH  13  14
HETATM   14  C11 BTN A 300      21.755  -0.164  18.924  1.00 21.57     0.185 C 
HETATM   15  O11 BTN A 300      20.573  -0.312  18.585  1.00 21.65    -0.647 OA
HETATM   16  O12 BTN A 300      22.396  -1.246  19.322  1.00 22.67    -0.647 OA
ENDBRANCH  13  14
ENDBRANCH  12  13
ENDBRANCH  11  12
ENDBRANCH  10  11
ENDBRANCH   3  10
TORSDOF 5
ENDMDL
