MODEL 1
REMARK VINA RESULT:    -4.522      0.000      0.000
REMARK INTER + INTRA:          -6.035
REMARK INTER:                  -5.844
REMARK INTRA:                  -0.191
REMARK UNBOUND:                -0.191
REMARK  5 active torsions:
REMARK  status: ('A' for Active; 'I' for Inactive)
REMARK    1  A    between atoms: C2_3  and  C7_10 
REMARK    2  A    between atoms: C7_10  and  C8_11 
REMARK    3  A    between atoms: C8_11  and  C9_12 
REMARK    4  A    between atoms: C9_12  and  C10_13 
REMARK    5  A    between atoms: C10_13  and  C11_14 
ROOT
HETATM    1  N1  BTN A 300      24.623   9.246  14.174  1.00 17.73    -0.217 NA
HETATM    2  S1  BTN A 300      23.361   7.058  16.323  1.00 16.59    -0.137 SA
HETATM    3  C2  BTN A 300      24.771   6.112  15.615  1.00 17.74     0.072 C 
HETATM    4  N2  BTN A 300      24.865   7.223  13.387  1.00 17.92    -0.217 NA
HETATM    5  C3  BTN A 300      24.372   8.454  13.125  1.00 17.95     0.360 A 
HETATM    6  O3  BTN A 300      23.790   8.734  12.055  1.00 17.93    -0.243 OA
HETATM    7  C4  BTN A 300      25.487   7.140  14.707  1.00 17.65     0.141 A 
HETATM    8  C5  BTN A 300      25.320   8.553  15.256  1.00 17.47     0.142 A 
HETATM    9  C6  BTN A 300      24.494   8.481  16.535  1.00 17.06     0.084 C 
ENDROOT
BRANCH   3  10
HETATM   10  C7  BTN A 300      24.549   4.852  14.881  1.00 18.33     0.013 C 
BRANCH  10  11
HETATM   11  C8  BTN A 300      23.392   3.898  15.170  1.00 19.24     0.002 C 
BRANCH  11  12
HETATM   12  C9  BTN A 300      23.343   2.695  14.317  1.00 20.09     0.011 C 
BRANCH  12  13
HETATM   13  C10 BTN A 300      21.900   2.361  13.803  1.00 20.77     0.098 C 
BRANCH  13  14
HETATM   14  C11 BTN A 300      21.535   0.950  14.100  1.00 21.57     0.185 C 
HETATM   15  O11 BTN A 300      22.286   0.113  14.619  1.00 21.65    -0.647 OA
HETATM   16  O12 BTN A 300      20.570   0.482  13.331  1.00 22.67    -0.647 OA
ENDBRANCH  13  14
ENDBRANCH  12  13
ENDBRANCH  11  12
ENDBRANCH  10  11
ENDBRANCH   3  10
TORSDOF 5
ENDMDL
MODEL 2
REMARK VINA RESULT:    -4.514      4.426      7.090
REMARK INTER + INTRA:          -6.024
REMARK INTER:                  -5.678
REMARK INTRA:                  -0.346
REMARK UNBOUND:                -0.191
REMARK  5 active torsions:
REMARK  status: ('A' for Active; 'I' for Inactive)
REMARK    1  A    between atoms: C2_3  and  C7_10 
REMARK    2  A    between atoms: C7_10  and  C8_11 
REMARK    3  A    between atoms: C8_11  and  C9_12 
REMARK    4  A    between atoms: C9_12  and  C10_13 
REMARK    5  A    between atoms: C10_13  and  C11_14 
ROOT
HETATM    1  N1  BTN A 300      20.498  -0.690  14.815  1.00 17.73    -0.217 NA
HETATM    2  S1  BTN A 300      23.455   0.401  15.849  1.00 16.59    -0.137 SA
HETATM    3  C2  BTN A 300      22.639   1.968  15.337  1.00 17.74     0.072 C 
HETATM    4  N2  BTN A 300      21.106   1.028  13.612  1.00 17.92    -0.217 NA
HETATM    5  C3  BTN A 300      20.708  -0.263  13.565  1.00 17.95     0.360 A 
HETATM    6  O3  BTN A 300      20.578  -0.890  12.492  1.00 17.93    -0.243 OA
HETATM    7  C4  BTN A 300      21.197   1.535  14.980  1.00 17.65     0.141 A 
HETATM    8  C5  BTN A 300      20.770   0.336  15.820  1.00 17.47     0.142 A 
HETATM    9  C6  BTN A 300      21.920  -0.039  16.747  1.00 17.06     0.084 C 
ENDROOT
BRANCH   3  10
HETATM   10  C7  BTN A 300      23.202   2.801  14.258  1.00 18.33     0.013 C 
BRANCH  10  11
HETATM   11  C8  BTN A 300      24.191   3.940  14.498  1.00 19.24     0.002 C 
BRANCH  11  12
HETATM   12  C9  BTN A 300      25.613   3.580  14.337  1.00 20.09     0.011 C 
BRANCH  12  13
HETATM   13  C10 BTN A 300      25.849   2.459  13.266  1.00 20.77     0.098 C 
BRANCH  13  14
HETATM   14  C11 BTN A 300      26.776   2.921  12.199  1.00 21.57     0.185 C 
HETATM   15  O11 BTN A 300      26.769   4.048  11.687  1.00 21.65    -0.647 OA
HETATM   16  O12 BTN A 300      27.260   1.940  11.461  1.00 22.67    -0.647 OA
ENDBRANCH  13  14
ENDBRANCH  12  13
ENDBRANCH  11  12
ENDBRANCH  10  11
ENDBRANCH   3  10
TORSDOF 5
ENDMDL
MODEL 3
REMARK VINA RESULT:    -4.380     13.248     15.489
REMARK INTER + INTRA:          -5.851
REMARK INTER:                  -5.654
REMARK INTRA:                  -0.197
REMARK UNBOUND:                -0.191
REMARK  5 active torsions:
REMARK  status: ('A' for Active; 'I' for Inactive)
REMARK    1  A    between atoms: C2_3  and  C7_10 
REMARK    2  A    between atoms: C7_10  and  C8_11 
REMARK    3  A    between atoms: C8_11  and  C9_12 
REMARK    4  A    between atoms: C9_12  and  C10_13 
REMARK    5  A    between atoms: C10_13  and  C11_14 
ROOT
HETATM    1  N1  BTN A 300      27.402  -7.912   2.931  1.00 17.73    -0.217 NA
HETATM    2  S1  BTN A 300      29.394  -5.299   3.386  1.00 16.59    -0.137 SA
HETATM    3  C2  BTN A 300      28.407  -5.289   4.939  1.00 17.74     0.072 C 
HETATM    4  N2  BTN A 300      26.342  -6.371   4.058  1.00 17.92    -0.217 NA
HETATM    5  C3  BTN A 300      26.300  -7.155   2.958  1.00 17.95     0.360 A 
HETATM    6  O3  BTN A 300      25.352  -7.123   2.144  1.00 17.93    -0.243 OA
HETATM    7  C4  BTN A 300      27.557  -6.578   4.845  1.00 17.65     0.141 A 
HETATM    8  C5  BTN A 300      28.296  -7.656   4.059  1.00 17.47     0.142 A 
HETATM    9  C6  BTN A 300      29.646  -7.098   3.624  1.00 17.06     0.084 C 
ENDROOT
BRANCH   3  10
HETATM   10  C7  BTN A 300      27.552  -4.139   5.288  1.00 18.33     0.013 C 
BRANCH  10  11
HETATM   11  C8  BTN A 300      28.074  -2.869   5.957  1.00 19.24     0.002 C 
BRANCH  11  12
HETATM   12  C9  BTN A 300      27.336  -2.447   7.163  1.00 20.09     0.011 C 
BRANCH  12  13
HETATM   13  C10 BTN A 300      28.003  -2.933   8.496  1.00 20.77     0.098 C 
BRANCH  13  14
HETATM   14  C11 BTN A 300      27.033  -2.906   9.624  1.00 21.57     0.185 C 
HETATM   15  O11 BTN A 300      25.806  -3.034   9.513  1.00 21.65    -0.647 OA
HETATM   16  O12 BTN A 300      27.465  -2.235  10.674  1.00 22.67    -0.647 OA
ENDBRANCH  13  14
ENDBRANCH  12  13
ENDBRANCH  11  12
ENDBRANCH  10  11
ENDBRANCH   3  10
TORSDOF 5
ENDMDL
MODEL 4
REMARK VINA RESULT:    -4.357      5.778      7.128
REMARK INTER + INTRA:          -5.822
REMARK INTER:                  -5.525
REMARK INTRA:                  -0.297
REMARK UNBOUND:                -0.191
REMARK  5 active torsions:
REMARK  status: ('A' for Active; 'I' for Inactive)
REMARK    1  A    between atoms: C2_3  and  C7_10 
REMARK    2  A    between atoms: C7_10  and  C8_11 
REMARK    3  A    between atoms: C8_11  and  C9_12 
REMARK    4  A    between atoms: C9_12  and  C10_13 
REMARK    5  A    between atoms: C10_13  and  C11_14 
ROOT
HETATM    1  N1  BTN A 300      20.319   0.917  15.087  1.00 17.73    -0.217 NA
HETATM    2  S1  BTN A 300      23.405  -0.193  15.582  1.00 16.59    -0.137 SA
HETATM    3  C2  BTN A 300      23.692   1.183  14.396  1.00 17.74     0.072 C 
HETATM    4  N2  BTN A 300      21.480   1.135  13.250  1.00 17.92    -0.217 NA
HETATM    5  C3  BTN A 300      20.353   0.614  13.784  1.00 17.95     0.360 A 
HETATM    6  O3  BTN A 300      19.523  -0.033  13.110  1.00 17.93    -0.243 OA
HETATM    7  C4  BTN A 300      22.297   1.833  14.240  1.00 17.65     0.141 A 
HETATM    8  C5  BTN A 300      21.485   1.684  15.523  1.00 17.47     0.142 A 
HETATM    9  C6  BTN A 300      22.332   0.935  16.546  1.00 17.06     0.084 C 
ENDROOT
BRANCH   3  10
HETATM   10  C7  BTN A 300      24.287   0.932  13.070  1.00 18.33     0.013 C 
BRANCH  10  11
HETATM   11  C8  BTN A 300      24.610  -0.463  12.538  1.00 19.24     0.002 C 
BRANCH  11  12
HETATM   12  C9  BTN A 300      26.004  -0.903  12.736  1.00 20.09     0.011 C 
BRANCH  12  13
HETATM   13  C10 BTN A 300      26.801  -1.054  11.394  1.00 20.77     0.098 C 
BRANCH  13  14
HETATM   14  C11 BTN A 300      26.656  -2.424  10.832  1.00 21.57     0.185 C 
HETATM   15  O11 BTN A 300      26.075  -2.703   9.775  1.00 21.65    -0.647 OA
HETATM   16  O12 BTN A 300      26.714  -3.375  11.744  1.00 22.67    -0.647 OA
ENDBRANCH  13  14
ENDBRANCH  12  13
ENDBRANCH  11  12
ENDBRANCH  10  11
ENDBRANCH   3  10
TORSDOF 5
ENDMDL
MODEL 5
REMARK VINA RESULT:    -4.293      3.922      7.479
REMARK INTER + INTRA:          -5.738
REMARK INTER:                  -5.504
REMARK INTRA:                  -0.234
REMARK UNBOUND:                -0.191
REMARK  5 active torsions:
REMARK  status: ('A' for Active; 'I' for Inactive)
REMARK    1  A    between atoms: C2_3  and  C7_10 
REMARK    2  A    between atoms: C7_10  and  C8_11 
REMARK    3  A    between atoms: C8_11  and  C9_12 
REMARK    4  A    between atoms: C9_12  and  C10_13 
REMARK    5  A    between atoms: C10_13  and  C11_14 
ROOT
HETATM    1  N1  BTN A 300      20.619  -1.110  14.489  1.00 17.73    -0.217 NA
HETATM    2  S1  BTN A 300      23.654   0.129  14.993  1.00 16.59    -0.137 SA
HETATM    3  C2  BTN A 300      22.616   1.272  15.993  1.00 17.74     0.072 C 
HETATM    4  N2  BTN A 300      20.499   1.061  14.696  1.00 17.92    -0.217 NA
HETATM    5  C3  BTN A 300      20.192   0.013  13.900  1.00 17.95     0.360 A 
HETATM    6  O3  BTN A 300      19.601   0.146  12.807  1.00 17.93    -0.243 OA
HETATM    7  C4  BTN A 300      21.201   0.653  15.911  1.00 17.65     0.141 A 
HETATM    8  C5  BTN A 300      21.282  -0.863  15.769  1.00 17.47     0.142 A 
HETATM    9  C6  BTN A 300      22.752  -1.270  15.756  1.00 17.06     0.084 C 
ENDROOT
BRANCH   3  10
HETATM   10  C7  BTN A 300      22.560   2.714  15.685  1.00 18.33     0.013 C 
BRANCH  10  11
HETATM   11  C8  BTN A 300      23.213   3.342  14.456  1.00 19.24     0.002 C 
BRANCH  11  12
HETATM   12  C9  BTN A 300      24.365   4.220  14.737  1.00 20.09     0.011 C 
BRANCH  12  13
HETATM   13  C10 BTN A 300      23.951   5.608  15.337  1.00 20.77     0.098 C 
BRANCH  13  14
HETATM   14  C11 BTN A 300      24.310   6.721  14.419  1.00 21.57     0.185 C 
HETATM   15  O11 BTN A 300      23.551   7.639  14.080  1.00 21.65    -0.647 OA
HETATM   16  O12 BTN A 300      25.283   6.420  13.581  1.00 22.67    -0.647 OA
ENDBRANCH  13  14
ENDBRANCH  12  13
ENDBRANCH  11  12
ENDBRANCH  10  11
ENDBRANCH   3  10
TORSDOF 5
ENDMDL
MODEL 6
REMARK VINA RESULT:    -4.288     11.522     13.084
REMARK INTER + INTRA:          -5.733
REMARK INTER:                  -5.547
REMARK INTRA:                  -0.186
REMARK UNBOUND:                -0.191
REMARK  5 active torsions:
REMARK  status: ('A' for Active; 'I' for Inactive)
REMARK    1  A    between atoms: C2_3  and  C7_10 
REMARK    2  A    between atoms: C7_10  and  C8_11 
REMARK    3  A    between atoms: C8_11  and  C9_12 
REMARK    4  A    between atoms: C9_12  and  C10_13 
REMARK    5  A    between atoms: C10_13  and  C11_14 
ROOT
HETATM    1  N1  BTN A 300      28.180  -1.659  10.224  1.00 17.73    -0.217 NA
HETATM    2  S1  BTN A 300      29.666  -3.868   8.245  1.00 16.59    -0.137 SA
HETATM    3  C2  BTN A 300      28.575  -2.981   7.059  1.00 17.74     0.072 C 
HETATM    4  N2  BTN A 300      26.794  -2.289   8.658  1.00 17.92    -0.217 NA
HETATM    5  C3  BTN A 300      26.968  -2.177   9.994  1.00 17.95     0.360 A 
HETATM    6  O3  BTN A 300      26.094  -2.518  10.819  1.00 17.93    -0.243 OA
HETATM    7  C4  BTN A 300      27.962  -1.839   7.903  1.00 17.65     0.141 A 
HETATM    8  C5  BTN A 300      28.929  -1.397   8.997  1.00 17.47     0.142 A 
HETATM    9  C6  BTN A 300      30.196  -2.238   8.890  1.00 17.06     0.084 C 
ENDROOT
BRANCH   3  10
HETATM   10  C7  BTN A 300      27.515  -3.695   6.322  1.00 18.33     0.013 C 
BRANCH  10  11
HETATM   11  C8  BTN A 300      27.608  -5.165   5.920  1.00 19.24     0.002 C 
BRANCH  11  12
HETATM   12  C9  BTN A 300      27.492  -5.428   4.472  1.00 20.09     0.011 C 
BRANCH  12  13
HETATM   13  C10 BTN A 300      26.049  -5.856   4.036  1.00 20.77     0.098 C 
BRANCH  13  14
HETATM   14  C11 BTN A 300      26.084  -7.063   3.167  1.00 21.57     0.185 C 
HETATM   15  O11 BTN A 300      27.082  -7.768   2.966  1.00 21.65    -0.647 OA
HETATM   16  O12 BTN A 300      25.163  -7.059   2.223  1.00 22.67    -0.647 OA
ENDBRANCH  13  14
ENDBRANCH  12  13
ENDBRANCH  11  12
ENDBRANCH  10  11
ENDBRANCH   3  10
TORSDOF 5
ENDMDL
MODEL 7
REMARK VINA RESULT:    -4.150      6.403      7.915
REMARK INTER + INTRA:          -5.553
REMARK INTER:                  -5.274
REMARK INTRA:                  -0.280
REMARK UNBOUND:                -0.191
REMARK  5 active torsions:
REMARK  status: ('A' for Active; 'I' for Inactive)
REMARK    1  A    between atoms: C2_3  and  C7_10 
REMARK    2  A    between atoms: C7_10  and  C8_11 
REMARK    3  A    between atoms: C8_11  and  C9_12 
REMARK    4  A    between atoms: C9_12  and  C10_13 
REMARK    5  A    between atoms: C10_13  and  C11_14 
ROOT
HETATM    1  N1  BTN A 300      27.760  -2.381  11.254  1.00 17.73    -0.217 NA
HETATM    2  S1  BTN A 300      27.502   0.893  11.716  1.00 16.59    -0.137 SA
HETATM    3  C2  BTN A 300      26.120   0.262  12.754  1.00 17.74     0.072 C 
HETATM    4  N2  BTN A 300      25.658  -1.839  11.495  1.00 17.92    -0.217 NA
HETATM    5  C3  BTN A 300      26.550  -2.459  10.690  1.00 17.95     0.360 A 
HETATM    6  O3  BTN A 300      26.223  -2.997   9.611  1.00 17.93    -0.243 OA
HETATM    7  C4  BTN A 300      26.283  -1.276  12.690  1.00 17.65     0.141 A 
HETATM    8  C5  BTN A 300      27.751  -1.656  12.523  1.00 17.47     0.142 A 
HETATM    9  C6  BTN A 300      28.580  -0.378  12.476  1.00 17.06     0.084 C 
ENDROOT
BRANCH   3  10
HETATM   10  C7  BTN A 300      24.722   0.637  12.469  1.00 18.33     0.013 C 
BRANCH  10  11
HETATM   11  C8  BTN A 300      23.566   0.388  13.435  1.00 19.24     0.002 C 
BRANCH  11  12
HETATM   12  C9  BTN A 300      22.673   1.542  13.655  1.00 20.09     0.011 C 
BRANCH  12  13
HETATM   13  C10 BTN A 300      21.386   1.179  14.474  1.00 20.77     0.098 C 
BRANCH  13  14
HETATM   14  C11 BTN A 300      20.642   0.057  13.840  1.00 21.57     0.185 C 
HETATM   15  O11 BTN A 300      19.783   0.181  12.957  1.00 21.65    -0.647 OA
HETATM   16  O12 BTN A 300      20.555  -1.015  14.603  1.00 22.67    -0.647 OA
ENDBRANCH  13  14
ENDBRANCH  12  13
ENDBRANCH  11  12
ENDBRANCH  10  11
ENDBRANCH   3  10
TORSDOF 5
ENDMDL
MODEL 8
REMARK VINA RESULT:    -4.142     23.163     25.066
REMARK INTER + INTRA:          -5.544
REMARK INTER:                  -5.385
REMARK INTRA:                  -0.158
REMARK UNBOUND:                -0.191
REMARK  5 active torsions:
REMARK  status: ('A' for Active; 'I' for Inactive)
REMARK    1  A    between atoms: C2_3  and  C7_10 
REMARK    2  A    between atoms: C7_10  and  C8_11 
REMARK    3  A    between atoms: C8_11  and  C9_12 
REMARK    4  A    between atoms: C9_12  and  C10_13 
REMARK    5  A    between atoms: C10_13  and  C11_14 
ROOT
HETATM    1  N1  BTN A 300      19.329  -9.919  -1.919  1.00 17.73    -0.217 NA
HETATM    2  S1  BTN A 300      20.569 -11.125  -4.749  1.00 16.59    -0.137 SA
HETATM    3  C2  BTN A 300      21.482  -9.536  -4.592  1.00 17.74     0.072 C 
HETATM    4  N2  BTN A 300      19.778  -8.273  -3.283  1.00 17.92    -0.217 NA
HETATM    5  C3  BTN A 300      18.813  -8.847  -2.531  1.00 17.95     0.360 A 
HETATM    6  O3  BTN A 300      17.650  -8.392  -2.465  1.00 17.93    -0.243 OA
HETATM    7  C4  BTN A 300      21.047  -8.995  -3.209  1.00 17.65     0.141 A 
HETATM    8  C5  BTN A 300      20.734 -10.143  -2.255  1.00 17.47     0.142 A 
HETATM    9  C6  BTN A 300      20.959 -11.459  -2.991  1.00 17.06     0.084 C 
ENDROOT
BRANCH   3  10
HETATM   10  C7  BTN A 300      21.352  -8.480  -5.614  1.00 18.33     0.013 C 
BRANCH  10  11
HETATM   11  C8  BTN A 300      21.878  -8.617  -7.042  1.00 19.24     0.002 C 
BRANCH  11  12
HETATM   12  C9  BTN A 300      22.214  -7.345  -7.711  1.00 20.09     0.011 C 
BRANCH  12  13
HETATM   13  C10 BTN A 300      23.757  -7.089  -7.812  1.00 20.77     0.098 C 
BRANCH  13  14
HETATM   14  C11 BTN A 300      24.089  -6.254  -8.997  1.00 21.57     0.185 C 
HETATM   15  O11 BTN A 300      23.274  -5.587  -9.650  1.00 21.65    -0.647 OA
HETATM   16  O12 BTN A 300      25.173  -6.651  -9.635  1.00 22.67    -0.647 OA
ENDBRANCH  13  14
ENDBRANCH  12  13
ENDBRANCH  11  12
ENDBRANCH  10  11
ENDBRANCH   3  10
TORSDOF 5
ENDMDL
MODEL 9
REMARK VINA RESULT:    -3.935      2.515      6.334
REMARK INTER + INTRA:          -5.276
REMARK INTER:                  -4.939
REMARK INTRA:                  -0.337
REMARK UNBOUND:                -0.191
REMARK  5 active torsions:
REMARK  status: ('A' for Active; 'I' for Inactive)
REMARK    1  A    between atoms: C2_3  and  C7_10 
REMARK    2  A    between atoms: C7_10  and  C8_11 
REMARK    3  A    between atoms: C8_11  and  C9_12 
REMARK    4  A    between atoms: C9_12  and  C10_13 
REMARK    5  A    between atoms: C10_13  and  C11_14 
ROOT
HETATM    1  N1  BTN A 300      23.416   1.736  15.596  1.00 17.73    -0.217 NA
HETATM    2  S1  BTN A 300      25.924   3.869  16.003  1.00 16.59    -0.137 SA
HETATM    3  C2  BTN A 300      24.506   5.010  15.733  1.00 17.74     0.072 C 
HETATM    4  N2  BTN A 300      23.089   3.499  14.349  1.00 17.92    -0.217 NA
HETATM    5  C3  BTN A 300      23.186   2.150  14.345  1.00 17.95     0.360 A 
HETATM    6  O3  BTN A 300      23.066   1.468  13.305  1.00 17.93    -0.243 OA
HETATM    7  C4  BTN A 300      23.279   4.069  15.681  1.00 17.65     0.141 A 
HETATM    8  C5  BTN A 300      23.505   2.838  16.553  1.00 17.47     0.142 A 
HETATM    9  C6  BTN A 300      24.884   2.947  17.196  1.00 17.06     0.084 C 
ENDROOT
BRANCH   3  10
HETATM   10  C7  BTN A 300      24.485   5.938  14.586  1.00 18.33     0.013 C 
BRANCH  10  11
HETATM   11  C8  BTN A 300      25.739   6.391  13.842  1.00 19.24     0.002 C 
BRANCH  11  12
HETATM   12  C9  BTN A 300      25.974   7.848  13.840  1.00 20.09     0.011 C 
BRANCH  12  13
HETATM   13  C10 BTN A 300      24.660   8.686  14.012  1.00 20.77     0.098 C 
BRANCH  13  14
HETATM   14  C11 BTN A 300      24.232   9.288  12.721  1.00 21.57     0.185 C 
HETATM   15  O11 BTN A 300      24.005  10.491  12.536  1.00 21.65    -0.647 OA
HETATM   16  O12 BTN A 300      23.610   8.440  11.925  1.00 22.67    -0.647 OA
ENDBRANCH  13  14
ENDBRANCH  12  13
ENDBRANCH  11  12
ENDBRANCH  10  11
ENDBRANCH   3  10
TORSDOF 5
ENDMDL
