MODEL 1
REMARK VINA RESULT:    -6.243      0.000      0.000
REMARK INTER + INTRA:          -8.473
REMARK INTER:                  -8.068
REMARK INTRA:                  -0.405
REMARK UNBOUND:                -0.405
REMARK  5 active torsions:
REMARK  status: ('A' for Active; 'I' for Inactive)
REMARK    1  A    between atoms: C2_3  and  C7_10 
REMARK    2  A    between atoms: C7_10  and  C8_11 
REMARK    3  A    between atoms: C8_11  and  C9_12 
REMARK    4  A    between atoms: C9_12  and  C10_13 
REMARK    5  A    between atoms: C10_13  and  C11_14 
ROOT
HETATM    1  N1  BTN A 300       9.760   0.239  -9.040  1.00 17.73    -0.217 NA
HETATM    2  S1  BTN A 300       9.477   0.774 -12.301  1.00 16.59    -0.137 SA
HETATM    3  C2  BTN A 300      11.153   1.452 -11.957  1.00 17.74     0.072 C 
HETATM    4  N2  BTN A 300      10.802   2.083  -9.573  1.00 17.92    -0.217 NA
HETATM    5  C3  BTN A 300       9.855   1.546  -8.771  1.00 17.95     0.360 A 
HETATM    6  O3  BTN A 300       9.215   2.221  -7.937  1.00 17.93    -0.243 OA
HETATM    7  C4  BTN A 300      11.397   1.096 -10.472  1.00 17.65     0.141 A 
HETATM    8  C5  BTN A 300      10.672  -0.192 -10.098  1.00 17.47     0.142 A 
HETATM    9  C6  BTN A 300       9.939  -0.709 -11.331  1.00 17.06     0.084 C 
ENDROOT
BRANCH   3  10
HETATM   10  C7  BTN A 300      11.462   2.874 -12.198  1.00 18.33     0.013 C 
BRANCH  10  11
HETATM   11  C8  BTN A 300      11.605   3.484 -13.591  1.00 19.24     0.002 C 
BRANCH  11  12
HETATM   12  C9  BTN A 300      10.779   4.680 -13.840  1.00 20.09     0.011 C 
BRANCH  12  13
HETATM   13  C10 BTN A 300       9.328   4.561 -13.258  1.00 20.77     0.098 C 
BRANCH  13  14
HETATM   14  C11 BTN A 300       8.342   4.249 -14.327  1.00 21.57     0.185 C 
HETATM   15  O11 BTN A 300       8.454   3.337 -15.157  1.00 21.65    -0.647 OA
HETATM   16  O12 BTN A 300       7.607   5.285 -14.683  1.00 22.67    -0.647 OA
ENDBRANCH  13  14
ENDBRANCH  12  13
ENDBRANCH  11  12
ENDBRANCH  10  11
ENDBRANCH   3  10
TORSDOF 5
ENDMDL
MODEL 2
REMARK VINA RESULT:    -5.315      1.464      2.083
REMARK INTER + INTRA:          -7.273
REMARK INTER:                  -7.073
REMARK INTRA:                  -0.200
REMARK UNBOUND:                -0.405
REMARK  5 active torsions:
REMARK  status: ('A' for Active; 'I' for Inactive)
REMARK    1  A    between atoms: C2_3  and  C7_10 
REMARK    2  A    between atoms: C7_10  and  C8_11 
REMARK    3  A    between atoms: C8_11  and  C9_12 
REMARK    4  A    between atoms: C9_12  and  C10_13 
REMARK    5  A    between atoms: C10_13  and  C11_14 
ROOT
HETATM    1  N1  BTN A 300      10.370   0.639 -10.245  1.00 17.73    -0.217 NA
HETATM    2  S1  BTN A 300       8.998   1.567 -13.119  1.00 16.59    -0.137 SA
HETATM    3  C2  BTN A 300      10.576   2.513 -13.138  1.00 17.74     0.072 C 
HETATM    4  N2  BTN A 300      10.904   2.712 -10.676  1.00 17.92    -0.217 NA
HETATM    5  C3  BTN A 300      10.349   1.886  -9.762  1.00 17.95     0.360 A 
HETATM    6  O3  BTN A 300       9.911   2.292  -8.664  1.00 17.93    -0.243 OA
HETATM    7  C4  BTN A 300      11.326   2.005 -11.884  1.00 17.65     0.141 A 
HETATM    8  C5  BTN A 300      10.955   0.557 -11.582  1.00 17.47     0.142 A 
HETATM    9  C6  BTN A 300       9.957   0.084 -12.633  1.00 17.06     0.084 C 
ENDROOT
BRANCH   3  10
HETATM   10  C7  BTN A 300      10.578   3.988 -13.170  1.00 18.33     0.013 C 
BRANCH  10  11
HETATM   11  C8  BTN A 300       9.309   4.833 -13.253  1.00 19.24     0.002 C 
BRANCH  11  12
HETATM   12  C9  BTN A 300       8.666   4.870 -14.580  1.00 20.09     0.011 C 
BRANCH  12  13
HETATM   13  C10 BTN A 300       7.108   4.703 -14.516  1.00 20.77     0.098 C 
BRANCH  13  14
HETATM   14  C11 BTN A 300       6.427   5.628 -15.460  1.00 21.57     0.185 C 
HETATM   15  O11 BTN A 300       5.306   6.127 -15.287  1.00 21.65    -0.647 OA
HETATM   16  O12 BTN A 300       6.826   5.494 -16.710  1.00 22.67    -0.647 OA
ENDBRANCH  13  14
ENDBRANCH  12  13
ENDBRANCH  11  12
ENDBRANCH  10  11
ENDBRANCH   3  10
TORSDOF 5
ENDMDL
MODEL 3
REMARK VINA RESULT:    -5.275      3.542      5.509
REMARK INTER + INTRA:          -7.222
REMARK INTER:                  -6.791
REMARK INTRA:                  -0.431
REMARK UNBOUND:                -0.405
REMARK  5 active torsions:
REMARK  status: ('A' for Active; 'I' for Inactive)
REMARK    1  A    between atoms: C2_3  and  C7_10 
REMARK    2  A    between atoms: C7_10  and  C8_11 
REMARK    3  A    between atoms: C8_11  and  C9_12 
REMARK    4  A    between atoms: C9_12  and  C10_13 
REMARK    5  A    between atoms: C10_13  and  C11_14 
ROOT
HETATM    1  N1  BTN A 300       5.939   1.508 -15.127  1.00 17.73    -0.217 NA
HETATM    2  S1  BTN A 300       5.924   4.635 -14.019  1.00 16.59    -0.137 SA
HETATM    3  C2  BTN A 300       7.676   4.435 -14.543  1.00 17.74     0.072 C 
HETATM    4  N2  BTN A 300       7.869   1.972 -14.216  1.00 17.92    -0.217 NA
HETATM    5  C3  BTN A 300       6.821   1.119 -14.200  1.00 17.95     0.360 A 
HETATM    6  O3  BTN A 300       6.756   0.145 -13.419  1.00 17.93    -0.243 OA
HETATM    7  C4  BTN A 300       7.707   3.037 -15.205  1.00 17.65     0.141 A 
HETATM    8  C5  BTN A 300       6.360   2.711 -15.843  1.00 17.47     0.142 A 
HETATM    9  C6  BTN A 300       5.420   3.890 -15.615  1.00 17.06     0.084 C 
ENDROOT
BRANCH   3  10
HETATM   10  C7  BTN A 300       8.779   4.563 -13.572  1.00 18.33     0.013 C 
BRANCH  10  11
HETATM   11  C8  BTN A 300      10.219   4.884 -13.966  1.00 19.24     0.002 C 
BRANCH  11  12
HETATM   12  C9  BTN A 300      11.240   3.977 -13.406  1.00 20.09     0.011 C 
BRANCH  12  13
HETATM   13  C10 BTN A 300      10.786   3.285 -12.074  1.00 20.77     0.098 C 
BRANCH  13  14
HETATM   14  C11 BTN A 300      11.219   1.863 -12.031  1.00 21.57     0.185 C 
HETATM   15  O11 BTN A 300      10.623   0.919 -12.568  1.00 21.65    -0.647 OA
HETATM   16  O12 BTN A 300      11.965   1.570 -10.983  1.00 22.67    -0.647 OA
ENDBRANCH  13  14
ENDBRANCH  12  13
ENDBRANCH  11  12
ENDBRANCH  10  11
ENDBRANCH   3  10
TORSDOF 5
ENDMDL
MODEL 4
REMARK VINA RESULT:    -5.095      1.408      1.963
REMARK INTER + INTRA:          -6.989
REMARK INTER:                  -7.243
REMARK INTRA:                   0.254
REMARK UNBOUND:                -0.405
REMARK  5 active torsions:
REMARK  status: ('A' for Active; 'I' for Inactive)
REMARK    1  A    between atoms: C2_3  and  C7_10 
REMARK    2  A    between atoms: C7_10  and  C8_11 
REMARK    3  A    between atoms: C8_11  and  C9_12 
REMARK    4  A    between atoms: C9_12  and  C10_13 
REMARK    5  A    between atoms: C10_13  and  C11_14 
ROOT
HETATM    1  N1  BTN A 300      10.710   1.045  -7.532  1.00 17.73    -0.217 NA
HETATM    2  S1  BTN A 300      10.640  -1.090 -10.070  1.00 16.59    -0.137 SA
HETATM    3  C2  BTN A 300      11.338   0.413 -10.868  1.00 17.74     0.072 C 
HETATM    4  N2  BTN A 300      10.295   2.123  -9.386  1.00 17.92    -0.217 NA
HETATM    5  C3  BTN A 300       9.854   1.880  -8.132  1.00 17.95     0.360 A 
HETATM    6  O3  BTN A 300       8.809   2.390  -7.674  1.00 17.93    -0.243 OA
HETATM    7  C4  BTN A 300      11.528   1.401  -9.693  1.00 17.65     0.141 A 
HETATM    8  C5  BTN A 300      11.819   0.650  -8.398  1.00 17.47     0.142 A 
HETATM    9  C6  BTN A 300      11.828  -0.845  -8.698  1.00 17.06     0.084 C 
ENDROOT
BRANCH   3  10
HETATM   10  C7  BTN A 300      10.636   1.077 -11.983  1.00 18.33     0.013 C 
BRANCH  10  11
HETATM   11  C8  BTN A 300      10.663   2.586 -12.220  1.00 19.24     0.002 C 
BRANCH  11  12
HETATM   12  C9  BTN A 300      11.334   3.013 -13.463  1.00 20.09     0.011 C 
BRANCH  12  13
HETATM   13  C10 BTN A 300      11.130   4.534 -13.783  1.00 20.77     0.098 C 
BRANCH  13  14
HETATM   14  C11 BTN A 300       9.702   4.840 -14.065  1.00 21.57     0.185 C 
HETATM   15  O11 BTN A 300       8.917   5.375 -13.271  1.00 21.65    -0.647 OA
HETATM   16  O12 BTN A 300       9.170   4.063 -14.989  1.00 22.67    -0.647 OA
ENDBRANCH  13  14
ENDBRANCH  12  13
ENDBRANCH  11  12
ENDBRANCH  10  11
ENDBRANCH   3  10
TORSDOF 5
ENDMDL
MODEL 5
REMARK VINA RESULT:    -4.602      4.323      6.434
REMARK INTER + INTRA:          -6.352
REMARK INTER:                  -6.042
REMARK INTRA:                  -0.309
REMARK UNBOUND:                -0.405
REMARK  5 active torsions:
REMARK  status: ('A' for Active; 'I' for Inactive)
REMARK    1  A    between atoms: C2_3  and  C7_10 
REMARK    2  A    between atoms: C7_10  and  C8_11 
REMARK    3  A    between atoms: C8_11  and  C9_12 
REMARK    4  A    between atoms: C9_12  and  C10_13 
REMARK    5  A    between atoms: C10_13  and  C11_14 
ROOT
HETATM    1  N1  BTN A 300       3.846   3.054 -15.657  1.00 17.73    -0.217 NA
HETATM    2  S1  BTN A 300       6.920   2.141 -16.507  1.00 16.59    -0.137 SA
HETATM    3  C2  BTN A 300       7.209   2.945 -14.878  1.00 17.74     0.072 C 
HETATM    4  N2  BTN A 300       5.280   4.523 -14.911  1.00 17.92    -0.217 NA
HETATM    5  C3  BTN A 300       4.166   4.353 -15.657  1.00 17.95     0.360 A 
HETATM    6  O3  BTN A 300       3.583   5.302 -16.224  1.00 17.93    -0.243 OA
HETATM    7  C4  BTN A 300       5.784   3.264 -14.366  1.00 17.65     0.141 A 
HETATM    8  C5  BTN A 300       4.782   2.238 -14.885  1.00 17.47     0.142 A 
HETATM    9  C6  BTN A 300       5.528   1.225 -15.746  1.00 17.06     0.084 C 
ENDROOT
BRANCH   3  10
HETATM   10  C7  BTN A 300       8.070   4.137 -14.761  1.00 18.33     0.013 C 
BRANCH  10  11
HETATM   11  C8  BTN A 300       8.687   4.608 -13.446  1.00 19.24     0.002 C 
BRANCH  11  12
HETATM   12  C9  BTN A 300      10.116   4.285 -13.272  1.00 20.09     0.011 C 
BRANCH  12  13
HETATM   13  C10 BTN A 300      10.408   3.456 -11.974  1.00 20.77     0.098 C 
BRANCH  13  14
HETATM   14  C11 BTN A 300      10.840   2.072 -12.304  1.00 21.57     0.185 C 
HETATM   15  O11 BTN A 300      10.119   1.201 -12.811  1.00 21.65    -0.647 OA
HETATM   16  O12 BTN A 300      11.854   1.648 -11.574  1.00 22.67    -0.647 OA
ENDBRANCH  13  14
ENDBRANCH  12  13
ENDBRANCH  11  12
ENDBRANCH  10  11
ENDBRANCH   3  10
TORSDOF 5
ENDMDL
MODEL 6
REMARK VINA RESULT:    -4.339      5.666      8.241
REMARK INTER + INTRA:          -6.013
REMARK INTER:                  -5.809
REMARK INTRA:                  -0.204
REMARK UNBOUND:                -0.405
REMARK  5 active torsions:
REMARK  status: ('A' for Active; 'I' for Inactive)
REMARK    1  A    between atoms: C2_3  and  C7_10 
REMARK    2  A    between atoms: C7_10  and  C8_11 
REMARK    3  A    between atoms: C8_11  and  C9_12 
REMARK    4  A    between atoms: C9_12  and  C10_13 
REMARK    5  A    between atoms: C10_13  and  C11_14 
ROOT
HETATM    1  N1  BTN A 300       3.050   5.162 -18.136  1.00 17.73    -0.217 NA
HETATM    2  S1  BTN A 300       6.212   5.881 -17.438  1.00 16.59    -0.137 SA
HETATM    3  C2  BTN A 300       5.887   4.482 -16.288  1.00 17.74     0.072 C 
HETATM    4  N2  BTN A 300       3.431   4.806 -16.015  1.00 17.92    -0.217 NA
HETATM    5  C3  BTN A 300       2.644   5.461 -16.897  1.00 17.95     0.360 A 
HETATM    6  O3  BTN A 300       1.707   6.207 -16.540  1.00 17.93    -0.243 OA
HETATM    7  C4  BTN A 300       4.465   4.010 -16.674  1.00 17.65     0.141 A 
HETATM    8  C5  BTN A 300       4.197   4.256 -18.155  1.00 17.47     0.142 A 
HETATM    9  C6  BTN A 300       5.439   4.893 -18.771  1.00 17.06     0.084 C 
ENDROOT
BRANCH   3  10
HETATM   10  C7  BTN A 300       5.985   4.660 -14.827  1.00 18.33     0.013 C 
BRANCH  10  11
HETATM   11  C8  BTN A 300       7.141   4.121 -13.986  1.00 19.24     0.002 C 
BRANCH  11  12
HETATM   12  C9  BTN A 300       8.480   4.593 -14.386  1.00 20.09     0.011 C 
BRANCH  12  13
HETATM   13  C10 BTN A 300       9.453   4.792 -13.172  1.00 20.77     0.098 C 
BRANCH  13  14
HETATM   14  C11 BTN A 300      10.443   3.686 -13.088  1.00 21.57     0.185 C 
HETATM   15  O11 BTN A 300      10.893   3.210 -12.037  1.00 21.65    -0.647 OA
HETATM   16  O12 BTN A 300      11.206   3.579 -14.159  1.00 22.67    -0.647 OA
ENDBRANCH  13  14
ENDBRANCH  12  13
ENDBRANCH  11  12
ENDBRANCH  10  11
ENDBRANCH   3  10
TORSDOF 5
ENDMDL
MODEL 7
REMARK VINA RESULT:    -4.294      4.900      6.781
REMARK INTER + INTRA:          -5.954
REMARK INTER:                  -5.757
REMARK INTRA:                  -0.197
REMARK UNBOUND:                -0.405
REMARK  5 active torsions:
REMARK  status: ('A' for Active; 'I' for Inactive)
REMARK    1  A    between atoms: C2_3  and  C7_10 
REMARK    2  A    between atoms: C7_10  and  C8_11 
REMARK    3  A    between atoms: C8_11  and  C9_12 
REMARK    4  A    between atoms: C9_12  and  C10_13 
REMARK    5  A    between atoms: C10_13  and  C11_14 
ROOT
HETATM    1  N1  BTN A 300       2.941   2.365 -15.670  1.00 17.73    -0.217 NA
HETATM    2  S1  BTN A 300       5.700   3.684 -16.956  1.00 16.59    -0.137 SA
HETATM    3  C2  BTN A 300       6.232   3.317 -15.234  1.00 17.74     0.072 C 
HETATM    4  N2  BTN A 300       4.005   3.487 -14.128  1.00 17.92    -0.217 NA
HETATM    5  C3  BTN A 300       2.822   3.343 -14.765  1.00 17.95     0.360 A 
HETATM    6  O3  BTN A 300       1.823   4.044 -14.498  1.00 17.93    -0.243 OA
HETATM    7  C4  BTN A 300       5.024   2.565 -14.626  1.00 17.65     0.141 A 
HETATM    8  C5  BTN A 300       4.280   1.780 -15.702  1.00 17.47     0.142 A 
HETATM    9  C6  BTN A 300       4.986   1.999 -17.036  1.00 17.06     0.084 C 
ENDROOT
BRANCH   3  10
HETATM   10  C7  BTN A 300       6.668   4.395 -14.327  1.00 18.33     0.013 C 
BRANCH  10  11
HETATM   11  C8  BTN A 300       8.117   4.596 -13.888  1.00 19.24     0.002 C 
BRANCH  11  12
HETATM   12  C9  BTN A 300       8.833   3.364 -13.506  1.00 20.09     0.011 C 
BRANCH  12  13
HETATM   13  C10 BTN A 300       9.980   3.614 -12.467  1.00 20.77     0.098 C 
BRANCH  13  14
HETATM   14  C11 BTN A 300      11.311   3.646 -13.130  1.00 21.57     0.185 C 
HETATM   15  O11 BTN A 300      12.313   3.024 -12.750  1.00 21.65    -0.647 OA
HETATM   16  O12 BTN A 300      11.527   4.747 -13.824  1.00 22.67    -0.647 OA
ENDBRANCH  13  14
ENDBRANCH  12  13
ENDBRANCH  11  12
ENDBRANCH  10  11
ENDBRANCH   3  10
TORSDOF 5
ENDMDL
MODEL 8
REMARK VINA RESULT:    -4.121      4.423      6.702
REMARK INTER + INTRA:          -5.731
REMARK INTER:                  -5.352
REMARK INTRA:                  -0.379
REMARK UNBOUND:                -0.405
REMARK  5 active torsions:
REMARK  status: ('A' for Active; 'I' for Inactive)
REMARK    1  A    between atoms: C2_3  and  C7_10 
REMARK    2  A    between atoms: C7_10  and  C8_11 
REMARK    3  A    between atoms: C8_11  and  C9_12 
REMARK    4  A    between atoms: C9_12  and  C10_13 
REMARK    5  A    between atoms: C10_13  and  C11_14 
ROOT
HETATM    1  N1  BTN A 300       6.178   1.463 -17.920  1.00 17.73    -0.217 NA
HETATM    2  S1  BTN A 300       4.795   2.400 -15.054  1.00 16.59    -0.137 SA
HETATM    3  C2  BTN A 300       6.291   3.470 -15.112  1.00 17.74     0.072 C 
HETATM    4  N2  BTN A 300       7.742   1.982 -16.487  1.00 17.92    -0.217 NA
HETATM    5  C3  BTN A 300       7.282   1.015 -17.311  1.00 17.95     0.360 A 
HETATM    6  O3  BTN A 300       7.850  -0.091 -17.436  1.00 17.93    -0.243 OA
HETATM    7  C4  BTN A 300       6.901   3.177 -16.503  1.00 17.65     0.141 A 
HETATM    8  C5  BTN A 300       5.810   2.816 -17.506  1.00 17.47     0.142 A 
HETATM    9  C6  BTN A 300       4.463   2.866 -16.794  1.00 17.06     0.084 C 
ENDROOT
BRANCH   3  10
HETATM   10  C7  BTN A 300       7.332   3.378 -14.070  1.00 18.33     0.013 C 
BRANCH  10  11
HETATM   11  C8  BTN A 300       8.395   4.451 -13.841  1.00 19.24     0.002 C 
BRANCH  11  12
HETATM   12  C9  BTN A 300       9.788   3.966 -13.856  1.00 20.09     0.011 C 
BRANCH  12  13
HETATM   13  C10 BTN A 300      10.414   3.841 -12.423  1.00 20.77     0.098 C 
BRANCH  13  14
HETATM   14  C11 BTN A 300      10.869   2.451 -12.154  1.00 21.57     0.185 C 
HETATM   15  O11 BTN A 300      11.990   2.137 -11.732  1.00 21.65    -0.647 OA
HETATM   16  O12 BTN A 300      10.226   1.540 -12.859  1.00 22.67    -0.647 OA
ENDBRANCH  13  14
ENDBRANCH  12  13
ENDBRANCH  11  12
ENDBRANCH  10  11
ENDBRANCH   3  10
TORSDOF 5
ENDMDL
MODEL 9
REMARK VINA RESULT:    -4.081      6.092      9.052
REMARK INTER + INTRA:          -5.679
REMARK INTER:                  -5.520
REMARK INTRA:                  -0.159
REMARK UNBOUND:                -0.405
REMARK  5 active torsions:
REMARK  status: ('A' for Active; 'I' for Inactive)
REMARK    1  A    between atoms: C2_3  and  C7_10 
REMARK    2  A    between atoms: C7_10  and  C8_11 
REMARK    3  A    between atoms: C8_11  and  C9_12 
REMARK    4  A    between atoms: C9_12  and  C10_13 
REMARK    5  A    between atoms: C10_13  and  C11_14 
ROOT
HETATM    1  N1  BTN A 300       4.144   5.877 -19.755  1.00 17.73    -0.217 NA
HETATM    2  S1  BTN A 300       4.018   4.267 -16.858  1.00 16.59    -0.137 SA
HETATM    3  C2  BTN A 300       5.037   5.735 -16.423  1.00 17.74     0.072 C 
HETATM    4  N2  BTN A 300       6.017   6.171 -18.672  1.00 17.92    -0.217 NA
HETATM    5  C3  BTN A 300       5.474   5.754 -19.836  1.00 17.95     0.360 A 
HETATM    6  O3  BTN A 300       6.164   5.335 -20.791  1.00 17.93    -0.243 OA
HETATM    7  C4  BTN A 300       5.007   6.599 -17.706  1.00 17.65     0.141 A 
HETATM    8  C5  BTN A 300       3.699   6.396 -18.463  1.00 17.47     0.142 A 
HETATM    9  C6  BTN A 300       2.843   5.398 -17.692  1.00 17.06     0.084 C 
ENDROOT
BRANCH   3  10
HETATM   10  C7  BTN A 300       6.424   5.584 -15.943  1.00 18.33     0.013 C 
BRANCH  10  11
HETATM   11  C8  BTN A 300       6.806   4.779 -14.703  1.00 19.24     0.002 C 
BRANCH  11  12
HETATM   12  C9  BTN A 300       8.168   4.212 -14.718  1.00 20.09     0.011 C 
BRANCH  12  13
HETATM   13  C10 BTN A 300       9.121   4.866 -13.658  1.00 20.77     0.098 C 
BRANCH  13  14
HETATM   14  C11 BTN A 300      10.090   3.874 -13.120  1.00 21.57     0.185 C 
HETATM   15  O11 BTN A 300      10.504   3.842 -11.954  1.00 21.65    -0.647 OA
HETATM   16  O12 BTN A 300      10.878   3.355 -14.042  1.00 22.67    -0.647 OA
ENDBRANCH  13  14
ENDBRANCH  12  13
ENDBRANCH  11  12
ENDBRANCH  10  11
ENDBRANCH   3  10
TORSDOF 5
ENDMDL
