MODEL 1
REMARK VINA RESULT:    -5.844      0.000      0.000
REMARK INTER + INTRA:          -7.816
REMARK INTER:                  -7.553
REMARK INTRA:                  -0.263
REMARK UNBOUND:                -0.263
REMARK  5 active torsions:
REMARK  status: ('A' for Active; 'I' for Inactive)
REMARK    1  A    between atoms: C2_3  and  C7_10 
REMARK    2  A    between atoms: C7_10  and  C8_11 
REMARK    3  A    between atoms: C8_11  and  C9_12 
REMARK    4  A    between atoms: C9_12  and  C10_13 
REMARK    5  A    between atoms: C10_13  and  C11_14 
ROOT
HETATM    1  N1  BTN A 300       4.745   4.365 -15.005  1.00 17.73    -0.217 NA
HETATM    2  S1  BTN A 300       7.399   2.388 -15.227  1.00 16.59    -0.137 SA
HETATM    3  C2  BTN A 300       8.040   3.752 -14.172  1.00 17.74     0.072 C 
HETATM    4  N2  BTN A 300       6.563   5.576 -15.008  1.00 17.92    -0.217 NA
HETATM    5  C3  BTN A 300       5.371   5.377 -15.615  1.00 17.95     0.360 A 
HETATM    6  O3  BTN A 300       4.984   6.067 -16.582  1.00 17.93    -0.243 OA
HETATM    7  C4  BTN A 300       6.796   4.635 -13.914  1.00 17.65     0.141 A 
HETATM    8  C5  BTN A 300       5.526   3.791 -13.910  1.00 17.47     0.142 A 
HETATM    9  C6  BTN A 300       5.910   2.337 -14.162  1.00 17.06     0.084 C 
ENDROOT
BRANCH   3  10
HETATM   10  C7  BTN A 300       9.174   4.586 -14.613  1.00 18.33     0.013 C 
BRANCH  10  11
HETATM   11  C8  BTN A 300      10.419   4.836 -13.764  1.00 19.24     0.002 C 
BRANCH  11  12
HETATM   12  C9  BTN A 300      11.227   3.637 -13.468  1.00 20.09     0.011 C 
BRANCH  12  13
HETATM   13  C10 BTN A 300      10.949   3.043 -12.043  1.00 20.77     0.098 C 
BRANCH  13  14
HETATM   14  C11 BTN A 300      11.151   1.570 -12.025  1.00 21.57     0.185 C 
HETATM   15  O11 BTN A 300      10.394   0.739 -12.545  1.00 21.65    -0.647 OA
HETATM   16  O12 BTN A 300      11.878   1.150 -11.007  1.00 22.67    -0.647 OA
ENDBRANCH  13  14
ENDBRANCH  12  13
ENDBRANCH  11  12
ENDBRANCH  10  11
ENDBRANCH   3  10
TORSDOF 5
ENDMDL
MODEL 2
REMARK VINA RESULT:    -5.690      2.387      3.413
REMARK INTER + INTRA:          -7.616
REMARK INTER:                  -7.324
REMARK INTRA:                  -0.293
REMARK UNBOUND:                -0.263
REMARK  5 active torsions:
REMARK  status: ('A' for Active; 'I' for Inactive)
REMARK    1  A    between atoms: C2_3  and  C7_10 
REMARK    2  A    between atoms: C7_10  and  C8_11 
REMARK    3  A    between atoms: C8_11  and  C9_12 
REMARK    4  A    between atoms: C9_12  and  C10_13 
REMARK    5  A    between atoms: C10_13  and  C11_14 
ROOT
HETATM    1  N1  BTN A 300       7.011   5.080 -14.524  1.00 17.73    -0.217 NA
HETATM    2  S1  BTN A 300       9.668   4.133 -12.778  1.00 16.59    -0.137 SA
HETATM    3  C2  BTN A 300       9.269   2.598 -13.710  1.00 17.74     0.072 C 
HETATM    4  N2  BTN A 300       6.821   2.971 -13.987  1.00 17.92    -0.217 NA
HETATM    5  C3  BTN A 300       6.221   4.181 -13.926  1.00 17.95     0.360 A 
HETATM    6  O3  BTN A 300       5.108   4.355 -13.385  1.00 17.93    -0.243 OA
HETATM    7  C4  BTN A 300       8.121   3.026 -14.654  1.00 17.65     0.141 A 
HETATM    8  C5  BTN A 300       8.252   4.498 -15.031  1.00 17.47     0.142 A 
HETATM    9  C6  BTN A 300       9.491   5.064 -14.345  1.00 17.06     0.084 C 
ENDROOT
BRANCH   3  10
HETATM   10  C7  BTN A 300       8.912   1.352 -13.006  1.00 18.33     0.013 C 
BRANCH  10  11
HETATM   11  C8  BTN A 300       9.940   0.377 -12.437  1.00 19.24     0.002 C 
BRANCH  11  12
HETATM   12  C9  BTN A 300      10.705   0.879 -11.278  1.00 20.09     0.011 C 
BRANCH  12  13
HETATM   13  C10 BTN A 300      10.080   0.466  -9.901  1.00 20.77     0.098 C 
BRANCH  13  14
HETATM   14  C11 BTN A 300      10.355   1.488  -8.856  1.00 21.57     0.185 C 
HETATM   15  O11 BTN A 300      10.216   1.318  -7.637  1.00 21.65    -0.647 OA
HETATM   16  O12 BTN A 300      10.257   2.728  -9.294  1.00 22.67    -0.647 OA
ENDBRANCH  13  14
ENDBRANCH  12  13
ENDBRANCH  11  12
ENDBRANCH  10  11
ENDBRANCH   3  10
TORSDOF 5
ENDMDL
MODEL 3
REMARK VINA RESULT:    -5.679      6.999      9.021
REMARK INTER + INTRA:          -7.602
REMARK INTER:                  -7.353
REMARK INTRA:                  -0.249
REMARK UNBOUND:                -0.263
REMARK  5 active torsions:
REMARK  status: ('A' for Active; 'I' for Inactive)
REMARK    1  A    between atoms: C2_3  and  C7_10 
REMARK    2  A    between atoms: C7_10  and  C8_11 
REMARK    3  A    between atoms: C8_11  and  C9_12 
REMARK    4  A    between atoms: C9_12  and  C10_13 
REMARK    5  A    between atoms: C10_13  and  C11_14 
ROOT
HETATM    1  N1  BTN A 300      12.868   1.375  -8.775  1.00 17.73    -0.217 NA
HETATM    2  S1  BTN A 300      10.789   0.446 -11.188  1.00 16.59    -0.137 SA
HETATM    3  C2  BTN A 300      10.066  -0.405  -9.726  1.00 17.74     0.072 C 
HETATM    4  N2  BTN A 300      12.152  -0.651  -8.386  1.00 17.92    -0.217 NA
HETATM    5  C3  BTN A 300      13.254   0.116  -8.540  1.00 17.95     0.360 A 
HETATM    6  O3  BTN A 300      14.413  -0.344  -8.458  1.00 17.93    -0.243 OA
HETATM    7  C4  BTN A 300      10.914   0.111  -8.540  1.00 17.65     0.141 A 
HETATM    8  C5  BTN A 300      11.414   1.527  -8.810  1.00 17.47     0.142 A 
HETATM    9  C6  BTN A 300      10.901   1.969 -10.176  1.00 17.06     0.084 C 
ENDROOT
BRANCH   3  10
HETATM   10  C7  BTN A 300       9.963  -1.876  -9.677  1.00 18.33     0.013 C 
BRANCH  10  11
HETATM   11  C8  BTN A 300       8.929  -2.678 -10.463  1.00 19.24     0.002 C 
BRANCH  11  12
HETATM   12  C9  BTN A 300       8.883  -4.119 -10.150  1.00 20.09     0.011 C 
BRANCH  12  13
HETATM   13  C10 BTN A 300       9.099  -4.428  -8.628  1.00 20.77     0.098 C 
BRANCH  13  14
HETATM   14  C11 BTN A 300       9.615  -5.808  -8.426  1.00 21.57     0.185 C 
HETATM   15  O11 BTN A 300      10.423  -6.145  -7.550  1.00 21.65    -0.647 OA
HETATM   16  O12 BTN A 300       9.584  -6.547  -9.517  1.00 22.67    -0.647 OA
ENDBRANCH  13  14
ENDBRANCH  12  13
ENDBRANCH  11  12
ENDBRANCH  10  11
ENDBRANCH   3  10
TORSDOF 5
ENDMDL
MODEL 4
REMARK VINA RESULT:    -5.476      5.865      6.414
REMARK INTER + INTRA:          -7.339
REMARK INTER:                  -7.021
REMARK INTRA:                  -0.318
REMARK UNBOUND:                -0.263
REMARK  5 active torsions:
REMARK  status: ('A' for Active; 'I' for Inactive)
REMARK    1  A    between atoms: C2_3  and  C7_10 
REMARK    2  A    between atoms: C7_10  and  C8_11 
REMARK    3  A    between atoms: C8_11  and  C9_12 
REMARK    4  A    between atoms: C9_12  and  C10_13 
REMARK    5  A    between atoms: C10_13  and  C11_14 
ROOT
HETATM    1  N1  BTN A 300       7.572  -2.352 -13.597  1.00 17.73    -0.217 NA
HETATM    2  S1  BTN A 300       8.356  -2.848 -10.413  1.00 16.59    -0.137 SA
HETATM    3  C2  BTN A 300       8.483  -1.018 -10.545  1.00 17.74     0.072 C 
HETATM    4  N2  BTN A 300       9.050  -0.872 -12.967  1.00 17.92    -0.217 NA
HETATM    5  C3  BTN A 300       8.774  -1.834 -13.876  1.00 17.95     0.360 A 
HETATM    6  O3  BTN A 300       9.560  -2.134 -14.800  1.00 17.93    -0.243 OA
HETATM    7  C4  BTN A 300       7.985  -0.716 -11.978  1.00 17.65     0.141 A 
HETATM    8  C5  BTN A 300       6.952  -1.747 -12.420  1.00 17.47     0.142 A 
HETATM    9  C6  BTN A 300       6.749  -2.745 -11.285  1.00 17.06     0.084 C 
ENDROOT
BRANCH   3  10
HETATM   10  C7  BTN A 300       9.760  -0.324 -10.293  1.00 18.33     0.013 C 
BRANCH  10  11
HETATM   11  C8  BTN A 300       9.917   0.824  -9.298  1.00 19.24     0.002 C 
BRANCH  11  12
HETATM   12  C9  BTN A 300      10.937   0.614  -8.253  1.00 20.09     0.011 C 
BRANCH  12  13
HETATM   13  C10 BTN A 300      11.838  -0.643  -8.514  1.00 20.77     0.098 C 
BRANCH  13  14
HETATM   14  C11 BTN A 300      13.248  -0.249  -8.775  1.00 21.57     0.185 C 
HETATM   15  O11 BTN A 300      14.240  -0.739  -8.218  1.00 21.65    -0.647 OA
HETATM   16  O12 BTN A 300      13.376   0.981  -9.234  1.00 22.67    -0.647 OA
ENDBRANCH  13  14
ENDBRANCH  12  13
ENDBRANCH  11  12
ENDBRANCH  10  11
ENDBRANCH   3  10
TORSDOF 5
ENDMDL
MODEL 5
REMARK VINA RESULT:    -5.291      1.825      2.271
REMARK INTER + INTRA:          -7.100
REMARK INTER:                  -6.864
REMARK INTRA:                  -0.236
REMARK UNBOUND:                -0.263
REMARK  5 active torsions:
REMARK  status: ('A' for Active; 'I' for Inactive)
REMARK    1  A    between atoms: C2_3  and  C7_10 
REMARK    2  A    between atoms: C7_10  and  C8_11 
REMARK    3  A    between atoms: C8_11  and  C9_12 
REMARK    4  A    between atoms: C9_12  and  C10_13 
REMARK    5  A    between atoms: C10_13  and  C11_14 
ROOT
HETATM    1  N1  BTN A 300       4.360   3.289 -15.451  1.00 17.73    -0.217 NA
HETATM    2  S1  BTN A 300       6.642   5.595 -16.143  1.00 16.59    -0.137 SA
HETATM    3  C2  BTN A 300       7.656   4.308 -15.307  1.00 17.74     0.072 C 
HETATM    4  N2  BTN A 300       5.872   3.320 -13.875  1.00 17.92    -0.217 NA
HETATM    5  C3  BTN A 300       4.548   3.410 -14.132  1.00 17.95     0.360 A 
HETATM    6  O3  BTN A 300       3.697   3.578 -13.232  1.00 17.93    -0.243 OA
HETATM    7  C4  BTN A 300       6.665   3.140 -15.090  1.00 17.65     0.141 A 
HETATM    8  C5  BTN A 300       5.609   3.116 -16.190  1.00 17.47     0.142 A 
HETATM    9  C6  BTN A 300       5.887   4.265 -17.152  1.00 17.06     0.084 C 
ENDROOT
BRANCH   3  10
HETATM   10  C7  BTN A 300       8.377   4.603 -14.055  1.00 18.33     0.013 C 
BRANCH  10  11
HETATM   11  C8  BTN A 300       9.854   4.991 -14.000  1.00 19.24     0.002 C 
BRANCH  11  12
HETATM   12  C9  BTN A 300      10.759   3.943 -13.491  1.00 20.09     0.011 C 
BRANCH  12  13
HETATM   13  C10 BTN A 300      10.375   3.441 -12.055  1.00 20.77     0.098 C 
BRANCH  13  14
HETATM   14  C11 BTN A 300      11.038   2.147 -11.742  1.00 21.57     0.185 C 
HETATM   15  O11 BTN A 300      12.118   2.025 -11.147  1.00 21.65    -0.647 OA
HETATM   16  O12 BTN A 300      10.702   1.170 -12.562  1.00 22.67    -0.647 OA
ENDBRANCH  13  14
ENDBRANCH  12  13
ENDBRANCH  11  12
ENDBRANCH  10  11
ENDBRANCH   3  10
TORSDOF 5
ENDMDL
MODEL 6
REMARK VINA RESULT:    -5.051      6.432      8.690
REMARK INTER + INTRA:          -6.790
REMARK INTER:                  -6.611
REMARK INTRA:                  -0.179
REMARK UNBOUND:                -0.263
REMARK  5 active torsions:
REMARK  status: ('A' for Active; 'I' for Inactive)
REMARK    1  A    between atoms: C2_3  and  C7_10 
REMARK    2  A    between atoms: C7_10  and  C8_11 
REMARK    3  A    between atoms: C8_11  and  C9_12 
REMARK    4  A    between atoms: C9_12  and  C10_13 
REMARK    5  A    between atoms: C10_13  and  C11_14 
ROOT
HETATM    1  N1  BTN A 300      12.930   1.603  -9.137  1.00 17.73    -0.217 NA
HETATM    2  S1  BTN A 300      10.574   0.771 -11.319  1.00 16.59    -0.137 SA
HETATM    3  C2  BTN A 300       9.994  -0.090  -9.800  1.00 17.74     0.072 C 
HETATM    4  N2  BTN A 300      12.208  -0.412  -8.704  1.00 17.92    -0.217 NA
HETATM    5  C3  BTN A 300      13.306   0.331  -8.966  1.00 17.95     0.360 A 
HETATM    6  O3  BTN A 300      14.455  -0.159  -9.021  1.00 17.93    -0.243 OA
HETATM    7  C4  BTN A 300      10.982   0.383  -8.708  1.00 17.65     0.141 A 
HETATM    8  C5  BTN A 300      11.486   1.791  -9.008  1.00 17.47     0.142 A 
HETATM    9  C6  BTN A 300      10.837   2.271 -10.302  1.00 17.06     0.084 C 
ENDROOT
BRANCH   3  10
HETATM   10  C7  BTN A 300       9.859  -1.558  -9.763  1.00 18.33     0.013 C 
BRANCH  10  11
HETATM   11  C8  BTN A 300       9.029  -2.357 -10.766  1.00 19.24     0.002 C 
BRANCH  11  12
HETATM   12  C9  BTN A 300       8.076  -3.313 -10.171  1.00 20.09     0.011 C 
BRANCH  12  13
HETATM   13  C10 BTN A 300       6.860  -3.636 -11.107  1.00 20.77     0.098 C 
BRANCH  13  14
HETATM   14  C11 BTN A 300       5.589  -3.698 -10.338  1.00 21.57     0.185 C 
HETATM   15  O11 BTN A 300       4.771  -4.627 -10.385  1.00 21.65    -0.647 OA
HETATM   16  O12 BTN A 300       5.117  -2.512 -10.004  1.00 22.67    -0.647 OA
ENDBRANCH  13  14
ENDBRANCH  12  13
ENDBRANCH  11  12
ENDBRANCH  10  11
ENDBRANCH   3  10
TORSDOF 5
ENDMDL
MODEL 7
REMARK VINA RESULT:    -5.006      7.101      8.107
REMARK INTER + INTRA:          -6.732
REMARK INTER:                  -6.510
REMARK INTRA:                  -0.222
REMARK UNBOUND:                -0.263
REMARK  5 active torsions:
REMARK  status: ('A' for Active; 'I' for Inactive)
REMARK    1  A    between atoms: C2_3  and  C7_10 
REMARK    2  A    between atoms: C7_10  and  C8_11 
REMARK    3  A    between atoms: C8_11  and  C9_12 
REMARK    4  A    between atoms: C9_12  and  C10_13 
REMARK    5  A    between atoms: C10_13  and  C11_14 
ROOT
HETATM    1  N1  BTN A 300       8.064  -4.935 -10.853  1.00 17.73    -0.217 NA
HETATM    2  S1  BTN A 300       7.292  -1.736 -11.265  1.00 16.59    -0.137 SA
HETATM    3  C2  BTN A 300       9.098  -1.642 -10.928  1.00 17.74     0.072 C 
HETATM    4  N2  BTN A 300       9.313  -3.706  -9.550  1.00 17.92    -0.217 NA
HETATM    5  C3  BTN A 300       8.446  -4.743  -9.586  1.00 17.95     0.360 A 
HETATM    6  O3  BTN A 300       8.106  -5.374  -8.562  1.00 17.93    -0.243 OA
HETATM    7  C4  BTN A 300       9.541  -3.123 -10.870  1.00 17.65     0.141 A 
HETATM    8  C5  BTN A 300       8.670  -3.983 -11.781  1.00 17.47     0.142 A 
HETATM    9  C6  BTN A 300       7.641  -3.083 -12.456  1.00 17.06     0.084 C 
ENDROOT
BRANCH   3  10
HETATM   10  C7  BTN A 300       9.615  -0.910  -9.756  1.00 18.33     0.013 C 
BRANCH  10  11
HETATM   11  C8  BTN A 300      10.216   0.492  -9.833  1.00 19.24     0.002 C 
BRANCH  11  12
HETATM   12  C9  BTN A 300      10.777   1.004  -8.568  1.00 20.09     0.011 C 
BRANCH  12  13
HETATM   13  C10 BTN A 300      11.861   0.057  -7.945  1.00 20.77     0.098 C 
BRANCH  13  14
HETATM   14  C11 BTN A 300      13.218   0.379  -8.460  1.00 21.57     0.185 C 
HETATM   15  O11 BTN A 300      13.464   1.185  -9.368  1.00 21.65    -0.647 OA
HETATM   16  O12 BTN A 300      14.095  -0.589  -8.276  1.00 22.67    -0.647 OA
ENDBRANCH  13  14
ENDBRANCH  12  13
ENDBRANCH  11  12
ENDBRANCH  10  11
ENDBRANCH   3  10
TORSDOF 5
ENDMDL
MODEL 8
REMARK VINA RESULT:    -4.972      3.260      6.348
REMARK INTER + INTRA:          -6.688
REMARK INTER:                  -6.735
REMARK INTRA:                   0.047
REMARK UNBOUND:                -0.263
REMARK  5 active torsions:
REMARK  status: ('A' for Active; 'I' for Inactive)
REMARK    1  A    between atoms: C2_3  and  C7_10 
REMARK    2  A    between atoms: C7_10  and  C8_11 
REMARK    3  A    between atoms: C8_11  and  C9_12 
REMARK    4  A    between atoms: C9_12  and  C10_13 
REMARK    5  A    between atoms: C10_13  and  C11_14 
ROOT
HETATM    1  N1  BTN A 300      10.545   0.625  -9.864  1.00 17.73    -0.217 NA
HETATM    2  S1  BTN A 300       9.132   1.325 -12.783  1.00 16.59    -0.137 SA
HETATM    3  C2  BTN A 300      10.318   2.719 -12.601  1.00 17.74     0.072 C 
HETATM    4  N2  BTN A 300      10.408   2.791 -10.112  1.00 17.92    -0.217 NA
HETATM    5  C3  BTN A 300      10.092   1.753  -9.305  1.00 17.95     0.360 A 
HETATM    6  O3  BTN A 300       9.479   1.900  -8.227  1.00 17.93    -0.243 OA
HETATM    7  C4  BTN A 300      11.111   2.365 -11.321  1.00 17.65     0.141 A 
HETATM    8  C5  BTN A 300      11.209   0.853 -11.147  1.00 17.47     0.142 A 
HETATM    9  C6  BTN A 300      10.485   0.184 -12.310  1.00 17.06     0.084 C 
ENDROOT
BRANCH   3  10
HETATM   10  C7  BTN A 300       9.846   4.115 -12.538  1.00 18.33     0.013 C 
BRANCH  10  11
HETATM   11  C8  BTN A 300       9.113   4.812 -13.682  1.00 19.24     0.002 C 
BRANCH  11  12
HETATM   12  C9  BTN A 300       7.950   4.081 -14.220  1.00 20.09     0.011 C 
BRANCH  12  13
HETATM   13  C10 BTN A 300       6.579   4.752 -13.863  1.00 20.77     0.098 C 
BRANCH  13  14
HETATM   14  C11 BTN A 300       5.600   4.601 -14.973  1.00 21.57     0.185 C 
HETATM   15  O11 BTN A 300       4.452   4.152 -14.854  1.00 21.65    -0.647 OA
HETATM   16  O12 BTN A 300       6.163   4.479 -16.159  1.00 22.67    -0.647 OA
ENDBRANCH  13  14
ENDBRANCH  12  13
ENDBRANCH  11  12
ENDBRANCH  10  11
ENDBRANCH   3  10
TORSDOF 5
ENDMDL
MODEL 9
REMARK VINA RESULT:    -4.691      6.612      7.254
REMARK INTER + INTRA:          -6.325
REMARK INTER:                  -6.094
REMARK INTRA:                  -0.231
REMARK UNBOUND:                -0.263
REMARK  5 active torsions:
REMARK  status: ('A' for Active; 'I' for Inactive)
REMARK    1  A    between atoms: C2_3  and  C7_10 
REMARK    2  A    between atoms: C7_10  and  C8_11 
REMARK    3  A    between atoms: C8_11  and  C9_12 
REMARK    4  A    between atoms: C9_12  and  C10_13 
REMARK    5  A    between atoms: C10_13  and  C11_14 
ROOT
HETATM    1  N1  BTN A 300       6.194  -3.659 -12.433  1.00 17.73    -0.217 NA
HETATM    2  S1  BTN A 300       9.134  -4.376 -11.075  1.00 16.59    -0.137 SA
HETATM    3  C2  BTN A 300       8.703  -2.806 -10.220  1.00 17.74     0.072 C 
HETATM    4  N2  BTN A 300       7.271  -1.810 -11.999  1.00 17.92    -0.217 NA
HETATM    5  C3  BTN A 300       6.649  -2.520 -12.966  1.00 17.95     0.360 A 
HETATM    6  O3  BTN A 300       6.551  -2.114 -14.144  1.00 17.93    -0.243 OA
HETATM    7  C4  BTN A 300       7.269  -2.499 -10.710  1.00 17.65     0.141 A 
HETATM    8  C5  BTN A 300       6.514  -3.790 -11.012  1.00 17.47     0.142 A 
HETATM    9  C6  BTN A 300       7.437  -4.969 -10.724  1.00 17.06     0.084 C 
ENDROOT
BRANCH   3  10
HETATM   10  C7  BTN A 300       9.554  -1.608 -10.355  1.00 18.33     0.013 C 
BRANCH  10  11
HETATM   11  C8  BTN A 300      10.770  -1.331  -9.473  1.00 19.24     0.002 C 
BRANCH  11  12
HETATM   12  C9  BTN A 300      10.662  -0.138  -8.613  1.00 20.09     0.011 C 
BRANCH  12  13
HETATM   13  C10 BTN A 300      11.947   0.122  -7.752  1.00 20.77     0.098 C 
BRANCH  13  14
HETATM   14  C11 BTN A 300      13.181  -0.022  -8.569  1.00 21.57     0.185 C 
HETATM   15  O11 BTN A 300      14.164  -0.710  -8.262  1.00 21.65    -0.647 OA
HETATM   16  O12 BTN A 300      13.404   1.001  -9.371  1.00 22.67    -0.647 OA
ENDBRANCH  13  14
ENDBRANCH  12  13
ENDBRANCH  11  12
ENDBRANCH  10  11
ENDBRANCH   3  10
TORSDOF 5
ENDMDL
