MODEL 1
REMARK VINA RESULT:    -6.936      0.000      0.000
REMARK INTER + INTRA:          -9.312
REMARK INTER:                  -8.964
REMARK INTRA:                  -0.348
REMARK UNBOUND:                -0.348
REMARK  5 active torsions:
REMARK  status: ('A' for Active; 'I' for Inactive)
REMARK    1  A    between atoms: C2_3  and  C7_10 
REMARK    2  A    between atoms: C7_10  and  C8_11 
REMARK    3  A    between atoms: C8_11  and  C9_12 
REMARK    4  A    between atoms: C9_12  and  C10_13 
REMARK    5  A    between atoms: C10_13  and  C11_14 
ROOT
HETATM    1  N1  BTN A 300      12.357  -0.129  -8.070  1.00 17.73    -0.217 NA
HETATM    2  S1  BTN A 300      10.553   2.407  -9.218  1.00 16.59    -0.137 SA
HETATM    3  C2  BTN A 300      10.408   1.195 -10.594  1.00 17.74     0.072 C 
HETATM    4  N2  BTN A 300      12.561  -0.008 -10.242  1.00 17.92    -0.217 NA
HETATM    5  C3  BTN A 300      13.239  -0.035  -9.072  1.00 17.95     0.360 A 
HETATM    6  O3  BTN A 300      14.486   0.020  -9.014  1.00 17.93    -0.243 OA
HETATM    7  C4  BTN A 300      11.114  -0.069 -10.050  1.00 17.65     0.141 A 
HETATM    8  C5  BTN A 300      10.971  -0.157  -8.534  1.00 17.47     0.142 A 
HETATM    9  C6  BTN A 300      10.167   1.047  -8.054  1.00 17.06     0.084 C 
ENDROOT
BRANCH   3  10
HETATM   10  C7  BTN A 300      10.908   1.515 -11.945  1.00 18.33     0.013 C 
BRANCH  10  11
HETATM   11  C8  BTN A 300      11.691   2.783 -12.278  1.00 19.24     0.002 C 
BRANCH  11  12
HETATM   12  C9  BTN A 300      11.124   3.603 -13.366  1.00 20.09     0.011 C 
BRANCH  12  13
HETATM   13  C10 BTN A 300       9.870   4.433 -12.925  1.00 20.77     0.098 C 
BRANCH  13  14
HETATM   14  C11 BTN A 300       8.748   4.268 -13.887  1.00 21.57     0.185 C 
HETATM   15  O11 BTN A 300       7.616   4.753 -13.753  1.00 21.65    -0.647 OA
HETATM   16  O12 BTN A 300       8.839   3.175 -14.620  1.00 22.67    -0.647 OA
ENDBRANCH  13  14
ENDBRANCH  12  13
ENDBRANCH  11  12
ENDBRANCH  10  11
ENDBRANCH   3  10
TORSDOF 5
ENDMDL
MODEL 2
REMARK VINA RESULT:    -6.241      1.673      2.074
REMARK INTER + INTRA:          -8.413
REMARK INTER:                  -8.121
REMARK INTRA:                  -0.292
REMARK UNBOUND:                -0.348
REMARK  5 active torsions:
REMARK  status: ('A' for Active; 'I' for Inactive)
REMARK    1  A    between atoms: C2_3  and  C7_10 
REMARK    2  A    between atoms: C7_10  and  C8_11 
REMARK    3  A    between atoms: C8_11  and  C9_12 
REMARK    4  A    between atoms: C9_12  and  C10_13 
REMARK    5  A    between atoms: C10_13  and  C11_14 
ROOT
HETATM    1  N1  BTN A 300      10.982  -0.898  -8.146  1.00 17.73    -0.217 NA
HETATM    2  S1  BTN A 300       9.059  -0.169 -10.749  1.00 16.59    -0.137 SA
HETATM    3  C2  BTN A 300      10.636   0.658 -11.209  1.00 17.74     0.072 C 
HETATM    4  N2  BTN A 300      11.503   1.080  -8.912  1.00 17.92    -0.217 NA
HETATM    5  C3  BTN A 300      11.124   0.390  -7.813  1.00 17.95     0.360 A 
HETATM    6  O3  BTN A 300      10.956   0.933  -6.700  1.00 17.93    -0.243 OA
HETATM    7  C4  BTN A 300      11.618   0.228 -10.094  1.00 17.65     0.141 A 
HETATM    8  C5  BTN A 300      11.256  -1.154  -9.559  1.00 17.47     0.142 A 
HETATM    9  C6  BTN A 300      10.031  -1.659 -10.314  1.00 17.06     0.084 C 
ENDROOT
BRANCH   3  10
HETATM   10  C7  BTN A 300      10.699   2.119 -11.407  1.00 18.33     0.013 C 
BRANCH  10  11
HETATM   11  C8  BTN A 300      11.686   2.802 -12.351  1.00 19.24     0.002 C 
BRANCH  11  12
HETATM   12  C9  BTN A 300      11.128   3.912 -13.147  1.00 20.09     0.011 C 
BRANCH  12  13
HETATM   13  C10 BTN A 300       9.678   4.317 -12.709  1.00 20.77     0.098 C 
BRANCH  13  14
HETATM   14  C11 BTN A 300       8.698   4.079 -13.803  1.00 21.57     0.185 C 
HETATM   15  O11 BTN A 300       8.973   3.619 -14.919  1.00 21.65    -0.647 OA
HETATM   16  O12 BTN A 300       7.628   4.847 -13.727  1.00 22.67    -0.647 OA
ENDBRANCH  13  14
ENDBRANCH  12  13
ENDBRANCH  11  12
ENDBRANCH  10  11
ENDBRANCH   3  10
TORSDOF 5
ENDMDL
MODEL 3
REMARK VINA RESULT:    -6.066      2.146      2.651
REMARK INTER + INTRA:          -8.186
REMARK INTER:                  -7.843
REMARK INTRA:                  -0.343
REMARK UNBOUND:                -0.348
REMARK  5 active torsions:
REMARK  status: ('A' for Active; 'I' for Inactive)
REMARK    1  A    between atoms: C2_3  and  C7_10 
REMARK    2  A    between atoms: C7_10  and  C8_11 
REMARK    3  A    between atoms: C8_11  and  C9_12 
REMARK    4  A    between atoms: C9_12  and  C10_13 
REMARK    5  A    between atoms: C10_13  and  C11_14 
ROOT
HETATM    1  N1  BTN A 300      10.095   0.328  -8.669  1.00 17.73    -0.217 NA
HETATM    2  S1  BTN A 300       9.770   0.597 -11.960  1.00 16.59    -0.137 SA
HETATM    3  C2  BTN A 300      11.222   1.680 -11.640  1.00 17.74     0.072 C 
HETATM    4  N2  BTN A 300      10.671   2.338  -9.301  1.00 17.92    -0.217 NA
HETATM    5  C3  BTN A 300       9.864   1.632  -8.478  1.00 17.95     0.360 A 
HETATM    6  O3  BTN A 300       9.060   2.177  -7.692  1.00 17.93    -0.243 OA
HETATM    7  C4  BTN A 300      11.510   1.478 -10.134  1.00 17.65     0.141 A 
HETATM    8  C5  BTN A 300      11.109   0.074  -9.691  1.00 17.47     0.142 A 
HETATM    9  C6  BTN A 300      10.553  -0.673 -10.898  1.00 17.06     0.084 C 
ENDROOT
BRANCH   3  10
HETATM   10  C7  BTN A 300      11.183   3.119 -11.962  1.00 18.33     0.013 C 
BRANCH  10  11
HETATM   11  C8  BTN A 300      11.652   3.700 -13.294  1.00 19.24     0.002 C 
BRANCH  11  12
HETATM   12  C9  BTN A 300      10.677   4.571 -13.977  1.00 20.09     0.011 C 
BRANCH  12  13
HETATM   13  C10 BTN A 300       9.256   4.546 -13.314  1.00 20.77     0.098 C 
BRANCH  13  14
HETATM   14  C11 BTN A 300       8.205   4.188 -14.303  1.00 21.57     0.185 C 
HETATM   15  O11 BTN A 300       8.332   3.350 -15.207  1.00 21.65    -0.647 OA
HETATM   16  O12 BTN A 300       7.325   5.149 -14.507  1.00 22.67    -0.647 OA
ENDBRANCH  13  14
ENDBRANCH  12  13
ENDBRANCH  11  12
ENDBRANCH  10  11
ENDBRANCH   3  10
TORSDOF 5
ENDMDL
MODEL 4
REMARK VINA RESULT:    -5.911      4.724      7.627
REMARK INTER + INTRA:          -7.987
REMARK INTER:                  -7.750
REMARK INTRA:                  -0.237
REMARK UNBOUND:                -0.348
REMARK  5 active torsions:
REMARK  status: ('A' for Active; 'I' for Inactive)
REMARK    1  A    between atoms: C2_3  and  C7_10 
REMARK    2  A    between atoms: C7_10  and  C8_11 
REMARK    3  A    between atoms: C8_11  and  C9_12 
REMARK    4  A    between atoms: C9_12  and  C10_13 
REMARK    5  A    between atoms: C10_13  and  C11_14 
ROOT
HETATM    1  N1  BTN A 300       4.657   4.378 -15.200  1.00 17.73    -0.217 NA
HETATM    2  S1  BTN A 300       7.352   2.450 -15.331  1.00 16.59    -0.137 SA
HETATM    3  C2  BTN A 300       7.906   3.784 -14.192  1.00 17.74     0.072 C 
HETATM    4  N2  BTN A 300       6.450   5.615 -15.052  1.00 17.92    -0.217 NA
HETATM    5  C3  BTN A 300       5.301   5.420 -15.736  1.00 17.95     0.360 A 
HETATM    6  O3  BTN A 300       4.960   6.139 -16.700  1.00 17.93    -0.243 OA
HETATM    7  C4  BTN A 300       6.634   4.639 -13.979  1.00 17.65     0.141 A 
HETATM    8  C5  BTN A 300       5.380   3.777 -14.081  1.00 17.47     0.142 A 
HETATM    9  C6  BTN A 300       5.804   2.339 -14.360  1.00 17.06     0.084 C 
ENDROOT
BRANCH   3  10
HETATM   10  C7  BTN A 300       9.050   4.650 -14.534  1.00 18.33     0.013 C 
BRANCH  10  11
HETATM   11  C8  BTN A 300      10.440   4.496 -13.920  1.00 19.24     0.002 C 
BRANCH  11  12
HETATM   12  C9  BTN A 300      10.468   3.885 -12.578  1.00 20.09     0.011 C 
BRANCH  12  13
HETATM   13  C10 BTN A 300      11.675   2.905 -12.371  1.00 20.77     0.098 C 
BRANCH  13  14
HETATM   14  C11 BTN A 300      11.469   2.040 -11.178  1.00 21.57     0.185 C 
HETATM   15  O11 BTN A 300      11.680   0.821 -11.137  1.00 21.65    -0.647 OA
HETATM   16  O12 BTN A 300      10.575   2.515 -10.332  1.00 22.67    -0.647 OA
ENDBRANCH  13  14
ENDBRANCH  12  13
ENDBRANCH  11  12
ENDBRANCH  10  11
ENDBRANCH   3  10
TORSDOF 5
ENDMDL
MODEL 5
REMARK VINA RESULT:    -5.850      1.892      2.158
REMARK INTER + INTRA:          -7.908
REMARK INTER:                  -7.625
REMARK INTRA:                  -0.282
REMARK UNBOUND:                -0.348
REMARK  5 active torsions:
REMARK  status: ('A' for Active; 'I' for Inactive)
REMARK    1  A    between atoms: C2_3  and  C7_10 
REMARK    2  A    between atoms: C7_10  and  C8_11 
REMARK    3  A    between atoms: C8_11  and  C9_12 
REMARK    4  A    between atoms: C9_12  and  C10_13 
REMARK    5  A    between atoms: C10_13  and  C11_14 
ROOT
HETATM    1  N1  BTN A 300      10.199  -0.898  -8.746  1.00 17.73    -0.217 NA
HETATM    2  S1  BTN A 300      12.559   1.327  -9.440  1.00 16.59    -0.137 SA
HETATM    3  C2  BTN A 300      11.152   1.952 -10.448  1.00 17.74     0.072 C 
HETATM    4  N2  BTN A 300       9.980  -0.218 -10.810  1.00 17.92    -0.217 NA
HETATM    5  C3  BTN A 300      10.122  -1.304 -10.018  1.00 17.95     0.360 A 
HETATM    6  O3  BTN A 300      10.163  -2.468 -10.471  1.00 17.93    -0.243 OA
HETATM    7  C4  BTN A 300       9.975   1.031 -10.049  1.00 17.65     0.141 A 
HETATM    8  C5  BTN A 300      10.125   0.555  -8.607  1.00 17.47     0.142 A 
HETATM    9  C6  BTN A 300      11.402   1.157  -8.031  1.00 17.06     0.084 C 
ENDROOT
BRANCH   3  10
HETATM   10  C7  BTN A 300      11.251   2.044 -11.917  1.00 18.33     0.013 C 
BRANCH  10  11
HETATM   11  C8  BTN A 300      11.959   3.183 -12.646  1.00 19.24     0.002 C 
BRANCH  11  12
HETATM   12  C9  BTN A 300      11.231   3.736 -13.804  1.00 20.09     0.011 C 
BRANCH  12  13
HETATM   13  C10 BTN A 300      10.037   4.666 -13.396  1.00 20.77     0.098 C 
BRANCH  13  14
HETATM   14  C11 BTN A 300       8.759   4.199 -13.997  1.00 21.57     0.185 C 
HETATM   15  O11 BTN A 300       8.664   3.479 -15.000  1.00 21.65    -0.647 OA
HETATM   16  O12 BTN A 300       7.735   4.989 -13.737  1.00 22.67    -0.647 OA
ENDBRANCH  13  14
ENDBRANCH  12  13
ENDBRANCH  11  12
ENDBRANCH  10  11
ENDBRANCH   3  10
TORSDOF 5
ENDMDL
MODEL 6
REMARK VINA RESULT:    -5.759      3.756      6.778
REMARK INTER + INTRA:          -7.791
REMARK INTER:                  -7.471
REMARK INTRA:                  -0.320
REMARK UNBOUND:                -0.348
REMARK  5 active torsions:
REMARK  status: ('A' for Active; 'I' for Inactive)
REMARK    1  A    between atoms: C2_3  and  C7_10 
REMARK    2  A    between atoms: C7_10  and  C8_11 
REMARK    3  A    between atoms: C8_11  and  C9_12 
REMARK    4  A    between atoms: C9_12  and  C10_13 
REMARK    5  A    between atoms: C10_13  and  C11_14 
ROOT
HETATM    1  N1  BTN A 300       7.233   5.244 -14.509  1.00 17.73    -0.217 NA
HETATM    2  S1  BTN A 300       9.782   4.111 -12.715  1.00 16.59    -0.137 SA
HETATM    3  C2  BTN A 300       9.339   2.627 -13.708  1.00 17.74     0.072 C 
HETATM    4  N2  BTN A 300       6.922   3.132 -14.047  1.00 17.92    -0.217 NA
HETATM    5  C3  BTN A 300       6.381   4.368 -13.965  1.00 17.95     0.360 A 
HETATM    6  O3  BTN A 300       5.261   4.581 -13.453  1.00 17.93    -0.243 OA
HETATM    7  C4  BTN A 300       8.243   3.142 -14.672  1.00 17.65     0.141 A 
HETATM    8  C5  BTN A 300       8.459   4.616 -14.997  1.00 17.47     0.142 A 
HETATM    9  C6  BTN A 300       9.701   5.098 -14.256  1.00 17.06     0.084 C 
ENDROOT
BRANCH   3  10
HETATM   10  C7  BTN A 300       8.898   1.380 -13.056  1.00 18.33     0.013 C 
BRANCH  10  11
HETATM   11  C8  BTN A 300       9.858   0.314 -12.534  1.00 19.24     0.002 C 
BRANCH  11  12
HETATM   12  C9  BTN A 300      10.614   0.689 -11.324  1.00 20.09     0.011 C 
BRANCH  12  13
HETATM   13  C10 BTN A 300       9.806   0.469  -9.998  1.00 20.77     0.098 C 
BRANCH  13  14
HETATM   14  C11 BTN A 300      10.241   1.418  -8.938  1.00 21.57     0.185 C 
HETATM   15  O11 BTN A 300      10.082   1.249  -7.721  1.00 21.65    -0.647 OA
HETATM   16  O12 BTN A 300      10.335   2.666  -9.354  1.00 22.67    -0.647 OA
ENDBRANCH  13  14
ENDBRANCH  12  13
ENDBRANCH  11  12
ENDBRANCH  10  11
ENDBRANCH   3  10
TORSDOF 5
ENDMDL
MODEL 7
REMARK VINA RESULT:    -5.332      2.743      3.987
REMARK INTER + INTRA:          -7.238
REMARK INTER:                  -6.738
REMARK INTRA:                  -0.501
REMARK UNBOUND:                -0.348
REMARK  5 active torsions:
REMARK  status: ('A' for Active; 'I' for Inactive)
REMARK    1  A    between atoms: C2_3  and  C7_10 
REMARK    2  A    between atoms: C7_10  and  C8_11 
REMARK    3  A    between atoms: C8_11  and  C9_12 
REMARK    4  A    between atoms: C9_12  and  C10_13 
REMARK    5  A    between atoms: C10_13  and  C11_14 
ROOT
HETATM    1  N1  BTN A 300      12.816   1.211  -8.571  1.00 17.73    -0.217 NA
HETATM    2  S1  BTN A 300      10.931   0.786 -11.268  1.00 16.59    -0.137 SA
HETATM    3  C2  BTN A 300      10.057  -0.263 -10.034  1.00 17.74     0.072 C 
HETATM    4  N2  BTN A 300      12.009  -0.819  -8.589  1.00 17.92    -0.217 NA
HETATM    5  C3  BTN A 300      13.143  -0.085  -8.520  1.00 17.95     0.360 A 
HETATM    6  O3  BTN A 300      14.276  -0.603  -8.423  1.00 17.93    -0.243 OA
HETATM    7  C4  BTN A 300      10.813   0.012  -8.713  1.00 17.65     0.141 A 
HETATM    8  C5  BTN A 300      11.376   1.430  -8.698  1.00 17.47     0.142 A 
HETATM    9  C6  BTN A 300      10.999   2.114 -10.008  1.00 17.06     0.084 C 
ENDROOT
BRANCH   3  10
HETATM   10  C7  BTN A 300       9.908  -1.716 -10.242  1.00 18.33     0.013 C 
BRANCH  10  11
HETATM   11  C8  BTN A 300       8.558  -2.413 -10.399  1.00 19.24     0.002 C 
BRANCH  11  12
HETATM   12  C9  BTN A 300       7.537  -1.643 -11.135  1.00 20.09     0.011 C 
BRANCH  12  13
HETATM   13  C10 BTN A 300       7.460  -2.016 -12.656  1.00 20.77     0.098 C 
BRANCH  13  14
HETATM   14  C11 BTN A 300       8.228  -1.050 -13.487  1.00 21.57     0.185 C 
HETATM   15  O11 BTN A 300       9.271  -1.310 -14.102  1.00 21.65    -0.647 OA
HETATM   16  O12 BTN A 300       8.048   0.208 -13.134  1.00 22.67    -0.647 OA
ENDBRANCH  13  14
ENDBRANCH  12  13
ENDBRANCH  11  12
ENDBRANCH  10  11
ENDBRANCH   3  10
TORSDOF 5
ENDMDL
MODEL 8
REMARK VINA RESULT:    -5.215      4.645      6.498
REMARK INTER + INTRA:          -7.087
REMARK INTER:                  -6.770
REMARK INTRA:                  -0.317
REMARK UNBOUND:                -0.348
REMARK  5 active torsions:
REMARK  status: ('A' for Active; 'I' for Inactive)
REMARK    1  A    between atoms: C2_3  and  C7_10 
REMARK    2  A    between atoms: C7_10  and  C8_11 
REMARK    3  A    between atoms: C8_11  and  C9_12 
REMARK    4  A    between atoms: C9_12  and  C10_13 
REMARK    5  A    between atoms: C10_13  and  C11_14 
ROOT
HETATM    1  N1  BTN A 300       6.698  -3.840 -11.000  1.00 17.73    -0.217 NA
HETATM    2  S1  BTN A 300       7.930  -0.760 -11.017  1.00 16.59    -0.137 SA
HETATM    3  C2  BTN A 300       9.448  -1.765 -10.750  1.00 17.74     0.072 C 
HETATM    4  N2  BTN A 300       8.389  -3.719  -9.623  1.00 17.92    -0.217 NA
HETATM    5  C3  BTN A 300       7.084  -4.053  -9.737  1.00 17.95     0.360 A 
HETATM    6  O3  BTN A 300       6.412  -4.486  -8.777  1.00 17.93    -0.243 OA
HETATM    7  C4  BTN A 300       8.951  -3.225 -10.878  1.00 17.65     0.141 A 
HETATM    8  C5  BTN A 300       7.771  -3.311 -11.841  1.00 17.47     0.142 A 
HETATM    9  C6  BTN A 300       7.472  -1.911 -12.366  1.00 17.06     0.084 C 
ENDROOT
BRANCH   3  10
HETATM   10  C7  BTN A 300      10.258  -1.609  -9.527  1.00 18.33     0.013 C 
BRANCH  10  11
HETATM   11  C8  BTN A 300      10.550  -0.259  -8.874  1.00 19.24     0.002 C 
BRANCH  11  12
HETATM   12  C9  BTN A 300      11.403   0.648  -9.664  1.00 20.09     0.011 C 
BRANCH  12  13
HETATM   13  C10 BTN A 300      12.804   0.907  -9.008  1.00 20.77     0.098 C 
BRANCH  13  14
HETATM   14  C11 BTN A 300      13.567  -0.360  -8.851  1.00 21.57     0.185 C 
HETATM   15  O11 BTN A 300      14.272  -0.651  -7.875  1.00 21.65    -0.647 OA
HETATM   16  O12 BTN A 300      13.880  -0.931  -9.998  1.00 22.67    -0.647 OA
ENDBRANCH  13  14
ENDBRANCH  12  13
ENDBRANCH  11  12
ENDBRANCH  10  11
ENDBRANCH   3  10
TORSDOF 5
ENDMDL
MODEL 9
REMARK VINA RESULT:    -4.856      4.774      6.739
REMARK INTER + INTRA:          -6.623
REMARK INTER:                  -6.375
REMARK INTRA:                  -0.248
REMARK UNBOUND:                -0.348
REMARK  5 active torsions:
REMARK  status: ('A' for Active; 'I' for Inactive)
REMARK    1  A    between atoms: C2_3  and  C7_10 
REMARK    2  A    between atoms: C7_10  and  C8_11 
REMARK    3  A    between atoms: C8_11  and  C9_12 
REMARK    4  A    between atoms: C9_12  and  C10_13 
REMARK    5  A    between atoms: C10_13  and  C11_14 
ROOT
HETATM    1  N1  BTN A 300       8.215  -3.889 -13.839  1.00 17.73    -0.217 NA
HETATM    2  S1  BTN A 300       9.481  -4.159 -10.785  1.00 16.59    -0.137 SA
HETATM    3  C2  BTN A 300       8.521  -2.596 -10.652  1.00 17.74     0.072 C 
HETATM    4  N2  BTN A 300       8.635  -1.900 -13.042  1.00 17.92    -0.217 NA
HETATM    5  C3  BTN A 300       8.863  -2.743 -14.073  1.00 17.95     0.360 A 
HETATM    6  O3  BTN A 300       9.574  -2.432 -15.053  1.00 17.93    -0.243 OA
HETATM    7  C4  BTN A 300       7.788  -2.495 -12.010  1.00 17.65     0.141 A 
HETATM    8  C5  BTN A 300       7.492  -3.884 -12.568  1.00 17.47     0.142 A 
HETATM    9  C6  BTN A 300       8.022  -4.923 -11.586  1.00 17.06     0.084 C 
ENDROOT
BRANCH   3  10
HETATM   10  C7  BTN A 300       9.188  -1.318 -10.338  1.00 18.33     0.013 C 
BRANCH  10  11
HETATM   11  C8  BTN A 300      10.519  -1.220  -9.596  1.00 19.24     0.002 C 
BRANCH  11  12
HETATM   12  C9  BTN A 300      10.687  -0.011  -8.766  1.00 20.09     0.011 C 
BRANCH  12  13
HETATM   13  C10 BTN A 300      11.900  -0.105  -7.778  1.00 20.77     0.098 C 
BRANCH  13  14
HETATM   14  C11 BTN A 300      13.174   0.263  -8.452  1.00 21.57     0.185 C 
HETATM   15  O11 BTN A 300      13.268   0.977  -9.459  1.00 21.65    -0.647 OA
HETATM   16  O12 BTN A 300      14.146  -0.606  -8.251  1.00 22.67    -0.647 OA
ENDBRANCH  13  14
ENDBRANCH  12  13
ENDBRANCH  11  12
ENDBRANCH  10  11
ENDBRANCH   3  10
TORSDOF 5
ENDMDL
