MODEL 1
REMARK VINA RESULT:    -5.815      0.000      0.000
REMARK INTER + INTRA:          -7.801
REMARK INTER:                  -7.515
REMARK INTRA:                  -0.287
REMARK UNBOUND:                -0.287
REMARK  5 active torsions:
REMARK  status: ('A' for Active; 'I' for Inactive)
REMARK    1  A    between atoms: C2_3  and  C7_10 
REMARK    2  A    between atoms: C7_10  and  C8_11 
REMARK    3  A    between atoms: C8_11  and  C9_12 
REMARK    4  A    between atoms: C9_12  and  C10_13 
REMARK    5  A    between atoms: C10_13  and  C11_14 
ROOT
HETATM    1  N1  BTN A 300       4.788   4.417 -15.254  1.00 17.73    -0.217 NA
HETATM    2  S1  BTN A 300       7.506   2.515 -15.281  1.00 16.59    -0.137 SA
HETATM    3  C2  BTN A 300       8.011   3.868 -14.141  1.00 17.74     0.072 C 
HETATM    4  N2  BTN A 300       6.565   5.674 -15.065  1.00 17.92    -0.217 NA
HETATM    5  C3  BTN A 300       5.439   5.460 -15.782  1.00 17.95     0.360 A 
HETATM    6  O3  BTN A 300       5.120   6.164 -16.764  1.00 17.93    -0.243 OA
HETATM    7  C4  BTN A 300       6.725   4.712 -13.977  1.00 17.65     0.141 A 
HETATM    8  C5  BTN A 300       5.483   3.836 -14.106  1.00 17.47     0.142 A 
HETATM    9  C6  BTN A 300       5.929   2.399 -14.356  1.00 17.06     0.084 C 
ENDROOT
BRANCH   3  10
HETATM   10  C7  BTN A 300       9.156   4.741 -14.458  1.00 18.33     0.013 C 
BRANCH  10  11
HETATM   11  C8  BTN A 300      10.574   4.495 -13.947  1.00 19.24     0.002 C 
BRANCH  11  12
HETATM   12  C9  BTN A 300      10.661   3.932 -12.586  1.00 20.09     0.011 C 
BRANCH  12  13
HETATM   13  C10 BTN A 300      11.763   2.825 -12.445  1.00 20.77     0.098 C 
BRANCH  13  14
HETATM   14  C11 BTN A 300      11.199   1.573 -11.874  1.00 21.57     0.185 C 
HETATM   15  O11 BTN A 300      11.703   0.921 -10.950  1.00 21.65    -0.647 OA
HETATM   16  O12 BTN A 300      10.433   0.909 -12.717  1.00 22.67    -0.647 OA
ENDBRANCH  13  14
ENDBRANCH  12  13
ENDBRANCH  11  12
ENDBRANCH  10  11
ENDBRANCH   3  10
TORSDOF 5
ENDMDL
MODEL 2
REMARK VINA RESULT:    -5.770      2.206      3.325
REMARK INTER + INTRA:          -7.743
REMARK INTER:                  -7.332
REMARK INTRA:                  -0.412
REMARK UNBOUND:                -0.287
REMARK  5 active torsions:
REMARK  status: ('A' for Active; 'I' for Inactive)
REMARK    1  A    between atoms: C2_3  and  C7_10 
REMARK    2  A    between atoms: C7_10  and  C8_11 
REMARK    3  A    between atoms: C8_11  and  C9_12 
REMARK    4  A    between atoms: C9_12  and  C10_13 
REMARK    5  A    between atoms: C10_13  and  C11_14 
ROOT
HETATM    1  N1  BTN A 300       7.244   5.219 -14.459  1.00 17.73    -0.217 NA
HETATM    2  S1  BTN A 300       9.794   4.043 -12.693  1.00 16.59    -0.137 SA
HETATM    3  C2  BTN A 300       9.334   2.577 -13.704  1.00 17.74     0.072 C 
HETATM    4  N2  BTN A 300       6.920   3.103 -14.024  1.00 17.92    -0.217 NA
HETATM    5  C3  BTN A 300       6.388   4.342 -13.923  1.00 17.95     0.360 A 
HETATM    6  O3  BTN A 300       5.272   4.556 -13.402  1.00 17.93    -0.243 OA
HETATM    7  C4  BTN A 300       8.238   3.112 -14.655  1.00 17.65     0.141 A 
HETATM    8  C5  BTN A 300       8.463   4.589 -14.962  1.00 17.47     0.142 A 
HETATM    9  C6  BTN A 300       9.713   5.052 -14.220  1.00 17.06     0.084 C 
ENDROOT
BRANCH   3  10
HETATM   10  C7  BTN A 300       8.887   1.324 -13.066  1.00 18.33     0.013 C 
BRANCH  10  11
HETATM   11  C8  BTN A 300       9.825   0.367 -12.334  1.00 19.24     0.002 C 
BRANCH  11  12
HETATM   12  C9  BTN A 300       9.473   0.098 -10.926  1.00 20.09     0.011 C 
BRANCH  12  13
HETATM   13  C10 BTN A 300      10.698   0.202  -9.953  1.00 20.77     0.098 C 
BRANCH  13  14
HETATM   14  C11 BTN A 300      11.121   1.616  -9.767  1.00 21.57     0.185 C 
HETATM   15  O11 BTN A 300      10.369   2.551  -9.460  1.00 21.65    -0.647 OA
HETATM   16  O12 BTN A 300      12.212   1.932 -10.438  1.00 22.67    -0.647 OA
ENDBRANCH  13  14
ENDBRANCH  12  13
ENDBRANCH  11  12
ENDBRANCH  10  11
ENDBRANCH   3  10
TORSDOF 5
ENDMDL
MODEL 3
REMARK VINA RESULT:    -5.251      2.143      2.595
REMARK INTER + INTRA:          -7.073
REMARK INTER:                  -6.864
REMARK INTRA:                  -0.209
REMARK UNBOUND:                -0.287
REMARK  5 active torsions:
REMARK  status: ('A' for Active; 'I' for Inactive)
REMARK    1  A    between atoms: C2_3  and  C7_10 
REMARK    2  A    between atoms: C7_10  and  C8_11 
REMARK    3  A    between atoms: C8_11  and  C9_12 
REMARK    4  A    between atoms: C9_12  and  C10_13 
REMARK    5  A    between atoms: C10_13  and  C11_14 
ROOT
HETATM    1  N1  BTN A 300       3.443   3.685 -14.944  1.00 17.73    -0.217 NA
HETATM    2  S1  BTN A 300       5.835   5.894 -15.576  1.00 16.59    -0.137 SA
HETATM    3  C2  BTN A 300       6.815   4.410 -15.106  1.00 17.74     0.072 C 
HETATM    4  N2  BTN A 300       5.137   3.332 -13.612  1.00 17.92    -0.217 NA
HETATM    5  C3  BTN A 300       3.807   3.566 -13.663  1.00 17.95     0.360 A 
HETATM    6  O3  BTN A 300       3.096   3.642 -12.637  1.00 17.93    -0.243 OA
HETATM    7  C4  BTN A 300       5.749   3.301 -14.939  1.00 17.65     0.141 A 
HETATM    8  C5  BTN A 300       4.565   3.545 -15.870  1.00 17.47     0.142 A 
HETATM    9  C6  BTN A 300       4.832   4.817 -16.667  1.00 17.06     0.084 C 
ENDROOT
BRANCH   3  10
HETATM   10  C7  BTN A 300       7.713   4.432 -13.936  1.00 18.33     0.013 C 
BRANCH  10  11
HETATM   11  C8  BTN A 300       9.081   3.753 -13.908  1.00 19.24     0.002 C 
BRANCH  11  12
HETATM   12  C9  BTN A 300      10.003   4.242 -12.865  1.00 20.09     0.011 C 
BRANCH  12  13
HETATM   13  C10 BTN A 300      10.237   3.205 -11.713  1.00 20.77     0.098 C 
BRANCH  13  14
HETATM   14  C11 BTN A 300      11.590   2.593 -11.805  1.00 21.57     0.185 C 
HETATM   15  O11 BTN A 300      12.166   1.994 -10.887  1.00 21.65    -0.647 OA
HETATM   16  O12 BTN A 300      12.358   3.150 -12.721  1.00 22.67    -0.647 OA
ENDBRANCH  13  14
ENDBRANCH  12  13
ENDBRANCH  11  12
ENDBRANCH  10  11
ENDBRANCH   3  10
TORSDOF 5
ENDMDL
MODEL 4
REMARK VINA RESULT:    -4.790      1.793      2.176
REMARK INTER + INTRA:          -6.477
REMARK INTER:                  -6.277
REMARK INTRA:                  -0.200
REMARK UNBOUND:                -0.287
REMARK  5 active torsions:
REMARK  status: ('A' for Active; 'I' for Inactive)
REMARK    1  A    between atoms: C2_3  and  C7_10 
REMARK    2  A    between atoms: C7_10  and  C8_11 
REMARK    3  A    between atoms: C8_11  and  C9_12 
REMARK    4  A    between atoms: C9_12  and  C10_13 
REMARK    5  A    between atoms: C10_13  and  C11_14 
ROOT
HETATM    1  N1  BTN A 300       4.567   4.334 -17.662  1.00 17.73    -0.217 NA
HETATM    2  S1  BTN A 300       5.660   2.670 -15.009  1.00 16.59    -0.137 SA
HETATM    3  C2  BTN A 300       6.222   4.381 -14.632  1.00 17.74     0.072 C 
HETATM    4  N2  BTN A 300       6.445   5.208 -16.972  1.00 17.92    -0.217 NA
HETATM    5  C3  BTN A 300       5.805   4.674 -18.036  1.00 17.95     0.360 A 
HETATM    6  O3  BTN A 300       6.346   4.551 -19.156  1.00 17.93    -0.243 OA
HETATM    7  C4  BTN A 300       5.611   5.230 -15.772  1.00 17.65     0.141 A 
HETATM    8  C5  BTN A 300       4.298   4.621 -16.254  1.00 17.47     0.142 A 
HETATM    9  C6  BTN A 300       4.020   3.363 -15.440  1.00 17.06     0.084 C 
ENDROOT
BRANCH   3  10
HETATM   10  C7  BTN A 300       7.655   4.693 -14.477  1.00 18.33     0.013 C 
BRANCH  10  11
HETATM   11  C8  BTN A 300       8.666   3.734 -13.851  1.00 19.24     0.002 C 
BRANCH  11  12
HETATM   12  C9  BTN A 300       9.606   4.350 -12.894  1.00 20.09     0.011 C 
BRANCH  12  13
HETATM   13  C10 BTN A 300      10.116   3.350 -11.800  1.00 20.77     0.098 C 
BRANCH  13  14
HETATM   14  C11 BTN A 300      11.490   2.870 -12.107  1.00 21.57     0.185 C 
HETATM   15  O11 BTN A 300      12.274   3.411 -12.899  1.00 21.65    -0.647 OA
HETATM   16  O12 BTN A 300      11.655   1.578 -11.902  1.00 22.67    -0.647 OA
ENDBRANCH  13  14
ENDBRANCH  12  13
ENDBRANCH  11  12
ENDBRANCH  10  11
ENDBRANCH   3  10
TORSDOF 5
ENDMDL
MODEL 5
REMARK VINA RESULT:    -4.679      3.122      4.531
REMARK INTER + INTRA:          -6.333
REMARK INTER:                  -6.044
REMARK INTRA:                  -0.289
REMARK UNBOUND:                -0.287
REMARK  5 active torsions:
REMARK  status: ('A' for Active; 'I' for Inactive)
REMARK    1  A    between atoms: C2_3  and  C7_10 
REMARK    2  A    between atoms: C7_10  and  C8_11 
REMARK    3  A    between atoms: C8_11  and  C9_12 
REMARK    4  A    between atoms: C9_12  and  C10_13 
REMARK    5  A    between atoms: C10_13  and  C11_14 
ROOT
HETATM    1  N1  BTN A 300       8.355   3.429 -14.455  1.00 17.73    -0.217 NA
HETATM    2  S1  BTN A 300      10.002   3.499 -11.576  1.00 16.59    -0.137 SA
HETATM    3  C2  BTN A 300      10.304   1.772 -12.135  1.00 17.74     0.072 C 
HETATM    4  N2  BTN A 300       8.239   1.470 -13.496  1.00 17.92    -0.217 NA
HETATM    5  C3  BTN A 300       7.515   2.483 -14.021  1.00 17.95     0.360 A 
HETATM    6  O3  BTN A 300       6.266   2.468 -14.063  1.00 17.93    -0.243 OA
HETATM    7  C4  BTN A 300       9.677   1.727 -13.549  1.00 17.65     0.141 A 
HETATM    8  C5  BTN A 300       9.758   3.093 -14.220  1.00 17.47     0.142 A 
HETATM    9  C6  BTN A 300      10.442   4.063 -13.262  1.00 17.06     0.084 C 
ENDROOT
BRANCH   3  10
HETATM   10  C7  BTN A 300       9.841   0.623 -11.335  1.00 18.33     0.013 C 
BRANCH  10  11
HETATM   11  C8  BTN A 300      10.690  -0.059 -10.264  1.00 19.24     0.002 C 
BRANCH  11  12
HETATM   12  C9  BTN A 300      11.087   0.805  -9.136  1.00 20.09     0.011 C 
BRANCH  12  13
HETATM   13  C10 BTN A 300      12.619   1.141  -9.125  1.00 20.77     0.098 C 
BRANCH  13  14
HETATM   14  C11 BTN A 300      13.430  -0.049  -8.754  1.00 21.57     0.185 C 
HETATM   15  O11 BTN A 300      13.819  -0.318  -7.609  1.00 21.65    -0.647 OA
HETATM   16  O12 BTN A 300      14.150  -0.527  -9.751  1.00 22.67    -0.647 OA
ENDBRANCH  13  14
ENDBRANCH  12  13
ENDBRANCH  11  12
ENDBRANCH  10  11
ENDBRANCH   3  10
TORSDOF 5
ENDMDL
MODEL 6
REMARK VINA RESULT:    -4.678      2.548      2.975
REMARK INTER + INTRA:          -6.332
REMARK INTER:                  -6.040
REMARK INTRA:                  -0.291
REMARK UNBOUND:                -0.287
REMARK  5 active torsions:
REMARK  status: ('A' for Active; 'I' for Inactive)
REMARK    1  A    between atoms: C2_3  and  C7_10 
REMARK    2  A    between atoms: C7_10  and  C8_11 
REMARK    3  A    between atoms: C8_11  and  C9_12 
REMARK    4  A    between atoms: C9_12  and  C10_13 
REMARK    5  A    between atoms: C10_13  and  C11_14 
ROOT
HETATM    1  N1  BTN A 300       5.527   1.579 -17.060  1.00 17.73    -0.217 NA
HETATM    2  S1  BTN A 300       5.714   2.835 -13.996  1.00 16.59    -0.137 SA
HETATM    3  C2  BTN A 300       7.082   3.724 -14.845  1.00 17.74     0.072 C 
HETATM    4  N2  BTN A 300       7.612   2.004 -16.568  1.00 17.92    -0.217 NA
HETATM    5  C3  BTN A 300       6.752   1.047 -16.983  1.00 17.95     0.360 A 
HETATM    6  O3  BTN A 300       7.115  -0.122 -17.236  1.00 17.93    -0.243 OA
HETATM    7  C4  BTN A 300       6.948   3.282 -16.322  1.00 17.65     0.141 A 
HETATM    8  C5  BTN A 300       5.493   2.987 -16.668  1.00 17.47     0.142 A 
HETATM    9  C6  BTN A 300       4.642   3.231 -15.427  1.00 17.06     0.084 C 
ENDROOT
BRANCH   3  10
HETATM   10  C7  BTN A 300       8.479   3.579 -14.395  1.00 18.33     0.013 C 
BRANCH  10  11
HETATM   11  C8  BTN A 300       9.315   4.734 -13.847  1.00 19.24     0.002 C 
BRANCH  11  12
HETATM   12  C9  BTN A 300      10.618   4.347 -13.274  1.00 20.09     0.011 C 
BRANCH  12  13
HETATM   13  C10 BTN A 300      10.695   2.831 -12.880  1.00 20.77     0.098 C 
BRANCH  13  14
HETATM   14  C11 BTN A 300      10.787   2.662 -11.405  1.00 21.57     0.185 C 
HETATM   15  O11 BTN A 300      10.192   3.356 -10.569  1.00 21.65    -0.647 OA
HETATM   16  O12 BTN A 300      11.909   2.092 -11.009  1.00 22.67    -0.647 OA
ENDBRANCH  13  14
ENDBRANCH  12  13
ENDBRANCH  11  12
ENDBRANCH  10  11
ENDBRANCH   3  10
TORSDOF 5
ENDMDL
MODEL 7
REMARK VINA RESULT:    -4.485      2.854      4.062
REMARK INTER + INTRA:          -6.082
REMARK INTER:                  -5.863
REMARK INTRA:                  -0.219
REMARK UNBOUND:                -0.287
REMARK  5 active torsions:
REMARK  status: ('A' for Active; 'I' for Inactive)
REMARK    1  A    between atoms: C2_3  and  C7_10 
REMARK    2  A    between atoms: C7_10  and  C8_11 
REMARK    3  A    between atoms: C8_11  and  C9_12 
REMARK    4  A    between atoms: C9_12  and  C10_13 
REMARK    5  A    between atoms: C10_13  and  C11_14 
ROOT
HETATM    1  N1  BTN A 300       4.198   5.558 -19.499  1.00 17.73    -0.217 NA
HETATM    2  S1  BTN A 300       3.937   4.142 -16.511  1.00 16.59    -0.137 SA
HETATM    3  C2  BTN A 300       4.965   5.620 -16.133  1.00 17.74     0.072 C 
HETATM    4  N2  BTN A 300       6.035   5.893 -18.366  1.00 17.92    -0.217 NA
HETATM    5  C3  BTN A 300       5.528   5.409 -19.522  1.00 17.95     0.360 A 
HETATM    6  O3  BTN A 300       6.245   4.918 -20.420  1.00 17.93    -0.243 OA
HETATM    7  C4  BTN A 300       4.998   6.399 -17.469  1.00 17.65     0.141 A 
HETATM    8  C5  BTN A 300       3.715   6.167 -18.261  1.00 17.47     0.142 A 
HETATM    9  C6  BTN A 300       2.814   5.234 -17.460  1.00 17.06     0.084 C 
ENDROOT
BRANCH   3  10
HETATM   10  C7  BTN A 300       6.330   5.479 -15.592  1.00 18.33     0.013 C 
BRANCH  10  11
HETATM   11  C8  BTN A 300       6.649   4.770 -14.277  1.00 19.24     0.002 C 
BRANCH  11  12
HETATM   12  C9  BTN A 300       7.904   3.994 -14.272  1.00 20.09     0.011 C 
BRANCH  12  13
HETATM   13  C10 BTN A 300       9.167   4.859 -14.614  1.00 20.77     0.098 C 
BRANCH  13  14
HETATM   14  C11 BTN A 300      10.214   4.721 -13.567  1.00 21.57     0.185 C 
HETATM   15  O11 BTN A 300      11.400   4.433 -13.778  1.00 21.65    -0.647 OA
HETATM   16  O12 BTN A 300       9.733   4.410 -12.378  1.00 22.67    -0.647 OA
ENDBRANCH  13  14
ENDBRANCH  12  13
ENDBRANCH  11  12
ENDBRANCH  10  11
ENDBRANCH   3  10
TORSDOF 5
ENDMDL
MODEL 8
REMARK VINA RESULT:    -4.269      2.188      3.183
REMARK INTER + INTRA:          -5.803
REMARK INTER:                  -5.416
REMARK INTRA:                  -0.388
REMARK UNBOUND:                -0.287
REMARK  5 active torsions:
REMARK  status: ('A' for Active; 'I' for Inactive)
REMARK    1  A    between atoms: C2_3  and  C7_10 
REMARK    2  A    between atoms: C7_10  and  C8_11 
REMARK    3  A    between atoms: C8_11  and  C9_12 
REMARK    4  A    between atoms: C9_12  and  C10_13 
REMARK    5  A    between atoms: C10_13  and  C11_14 
ROOT
HETATM    1  N1  BTN A 300       8.113   5.032 -15.298  1.00 17.73    -0.217 NA
HETATM    2  S1  BTN A 300       7.305   1.946 -16.206  1.00 16.59    -0.137 SA
HETATM    3  C2  BTN A 300       6.639   2.015 -14.493  1.00 17.74     0.072 C 
HETATM    4  N2  BTN A 300       8.215   3.708 -13.565  1.00 17.92    -0.217 NA
HETATM    5  C3  BTN A 300       8.904   4.600 -14.310  1.00 17.95     0.360 A 
HETATM    6  O3  BTN A 300      10.085   4.922 -14.056  1.00 17.93    -0.243 OA
HETATM    7  C4  BTN A 300       6.861   3.487 -14.070  1.00 17.65     0.141 A 
HETATM    8  C5  BTN A 300       6.789   4.413 -15.279  1.00 17.47     0.142 A 
HETATM    9  C6  BTN A 300       6.517   3.569 -16.519  1.00 17.06     0.084 C 
ENDROOT
BRANCH   3  10
HETATM   10  C7  BTN A 300       7.139   1.104 -13.446  1.00 18.33     0.013 C 
BRANCH  10  11
HETATM   11  C8  BTN A 300       8.272   0.104 -13.666  1.00 19.24     0.002 C 
BRANCH  11  12
HETATM   12  C9  BTN A 300       9.278   0.049 -12.588  1.00 20.09     0.011 C 
BRANCH  12  13
HETATM   13  C10 BTN A 300      10.382   1.154 -12.717  1.00 20.77     0.098 C 
BRANCH  13  14
HETATM   14  C11 BTN A 300      10.804   1.654 -11.381  1.00 21.57     0.185 C 
HETATM   15  O11 BTN A 300      10.532   2.771 -10.920  1.00 21.65    -0.647 OA
HETATM   16  O12 BTN A 300      11.897   1.076 -10.923  1.00 22.67    -0.647 OA
ENDBRANCH  13  14
ENDBRANCH  12  13
ENDBRANCH  11  12
ENDBRANCH  10  11
ENDBRANCH   3  10
TORSDOF 5
ENDMDL
MODEL 9
REMARK VINA RESULT:    -4.196     10.787     11.887
REMARK INTER + INTRA:          -5.709
REMARK INTER:                  -5.372
REMARK INTRA:                  -0.337
REMARK UNBOUND:                -0.287
REMARK  5 active torsions:
REMARK  status: ('A' for Active; 'I' for Inactive)
REMARK    1  A    between atoms: C2_3  and  C7_10 
REMARK    2  A    between atoms: C7_10  and  C8_11 
REMARK    3  A    between atoms: C8_11  and  C9_12 
REMARK    4  A    between atoms: C9_12  and  C10_13 
REMARK    5  A    between atoms: C10_13  and  C11_14 
ROOT
HETATM    1  N1  BTN A 300       8.255  15.537 -14.371  1.00 17.73    -0.217 NA
HETATM    2  S1  BTN A 300       8.791  16.021 -11.134  1.00 16.59    -0.137 SA
HETATM    3  C2  BTN A 300       8.431  14.217 -11.185  1.00 17.74     0.072 C 
HETATM    4  N2  BTN A 300       6.978  14.200 -13.209  1.00 17.92    -0.217 NA
HETATM    5  C3  BTN A 300       6.990  15.154 -14.167  1.00 17.95     0.360 A 
HETATM    6  O3  BTN A 300       5.950  15.559 -14.728  1.00 17.93    -0.243 OA
HETATM    7  C4  BTN A 300       8.315  13.907 -12.696  1.00 17.65     0.141 A 
HETATM    8  C5  BTN A 300       9.207  14.839 -13.509  1.00 17.47     0.142 A 
HETATM    9  C6  BTN A 300       9.929  15.777 -12.549  1.00 17.06     0.084 C 
ENDROOT
BRANCH   3  10
HETATM   10  C7  BTN A 300       7.278  13.652 -10.459  1.00 18.33     0.013 C 
BRANCH  10  11
HETATM   11  C8  BTN A 300       6.512  14.403  -9.373  1.00 19.24     0.002 C 
BRANCH  11  12
HETATM   12  C9  BTN A 300       5.307  13.718  -8.867  1.00 20.09     0.011 C 
BRANCH  12  13
HETATM   13  C10 BTN A 300       4.068  13.865  -9.818  1.00 20.77     0.098 C 
BRANCH  13  14
HETATM   14  C11 BTN A 300       3.734  12.572 -10.472  1.00 21.57     0.185 C 
HETATM   15  O11 BTN A 300       4.248  12.147 -11.516  1.00 21.65    -0.647 OA
HETATM   16  O12 BTN A 300       2.521  12.138 -10.192  1.00 22.67    -0.647 OA
ENDBRANCH  13  14
ENDBRANCH  12  13
ENDBRANCH  11  12
ENDBRANCH  10  11
ENDBRANCH   3  10
TORSDOF 5
ENDMDL
