MODEL 1
REMARK VINA RESULT:    -6.026      0.000      0.000
REMARK INTER + INTRA:          -8.023
REMARK INTER:                  -7.787
REMARK INTRA:                  -0.237
REMARK UNBOUND:                -0.237
REMARK  5 active torsions:
REMARK  status: ('A' for Active; 'I' for Inactive)
REMARK    1  A    between atoms: C2_3  and  C7_10 
REMARK    2  A    between atoms: C7_10  and  C8_11 
REMARK    3  A    between atoms: C8_11  and  C9_12 
REMARK    4  A    between atoms: C9_12  and  C10_13 
REMARK    5  A    between atoms: C10_13  and  C11_14 
ROOT
HETATM    1  N1  BTN A 300       4.836   4.573 -15.289  1.00 17.73    -0.217 NA
HETATM    2  S1  BTN A 300       7.321   2.376 -15.230  1.00 16.59    -0.137 SA
HETATM    3  C2  BTN A 300       7.958   3.688 -14.109  1.00 17.74     0.072 C 
HETATM    4  N2  BTN A 300       6.740   5.625 -15.094  1.00 17.92    -0.217 NA
HETATM    5  C3  BTN A 300       5.608   5.524 -15.826  1.00 17.95     0.360 A 
HETATM    6  O3  BTN A 300       5.387   6.238 -16.827  1.00 17.93    -0.243 OA
HETATM    7  C4  BTN A 300       6.774   4.675 -13.984  1.00 17.65     0.141 A 
HETATM    8  C5  BTN A 300       5.443   3.942 -14.118  1.00 17.47     0.142 A 
HETATM    9  C6  BTN A 300       5.727   2.459 -14.331  1.00 17.06     0.084 C 
ENDROOT
BRANCH   3  10
HETATM   10  C7  BTN A 300       9.200   4.419 -14.423  1.00 18.33     0.013 C 
BRANCH  10  11
HETATM   11  C8  BTN A 300      10.461   4.352 -13.564  1.00 19.24     0.002 C 
BRANCH  11  12
HETATM   12  C9  BTN A 300      10.288   3.714 -12.245  1.00 20.09     0.011 C 
BRANCH  12  13
HETATM   13  C10 BTN A 300      11.398   2.654 -11.922  1.00 20.77     0.098 C 
BRANCH  13  14
HETATM   14  C11 BTN A 300      11.266   2.143 -10.531  1.00 21.57     0.185 C 
HETATM   15  O11 BTN A 300      10.471   2.574  -9.686  1.00 21.65    -0.647 OA
HETATM   16  O12 BTN A 300      12.364   1.573 -10.074  1.00 22.67    -0.647 OA
ENDBRANCH  13  14
ENDBRANCH  12  13
ENDBRANCH  11  12
ENDBRANCH  10  11
ENDBRANCH   3  10
TORSDOF 5
ENDMDL
MODEL 2
REMARK VINA RESULT:    -5.771      2.115      3.128
REMARK INTER + INTRA:          -7.694
REMARK INTER:                  -7.288
REMARK INTRA:                  -0.406
REMARK UNBOUND:                -0.237
REMARK  5 active torsions:
REMARK  status: ('A' for Active; 'I' for Inactive)
REMARK    1  A    between atoms: C2_3  and  C7_10 
REMARK    2  A    between atoms: C7_10  and  C8_11 
REMARK    3  A    between atoms: C8_11  and  C9_12 
REMARK    4  A    between atoms: C9_12  and  C10_13 
REMARK    5  A    between atoms: C10_13  and  C11_14 
ROOT
HETATM    1  N1  BTN A 300       7.320   5.352 -14.447  1.00 17.73    -0.217 NA
HETATM    2  S1  BTN A 300       9.886   4.112 -12.750  1.00 16.59    -0.137 SA
HETATM    3  C2  BTN A 300       9.360   2.656 -13.744  1.00 17.74     0.072 C 
HETATM    4  N2  BTN A 300       6.953   3.246 -13.998  1.00 17.92    -0.217 NA
HETATM    5  C3  BTN A 300       6.457   4.498 -13.884  1.00 17.95     0.360 A 
HETATM    6  O3  BTN A 300       5.362   4.743 -13.334  1.00 17.93    -0.243 OA
HETATM    7  C4  BTN A 300       8.253   3.219 -14.666  1.00 17.65     0.141 A 
HETATM    8  C5  BTN A 300       8.508   4.689 -14.982  1.00 17.47     0.142 A 
HETATM    9  C6  BTN A 300       9.789   5.119 -14.276  1.00 17.06     0.084 C 
ENDROOT
BRANCH   3  10
HETATM   10  C7  BTN A 300       8.898   1.416 -13.091  1.00 18.33     0.013 C 
BRANCH  10  11
HETATM   11  C8  BTN A 300       9.821   0.470 -12.325  1.00 19.24     0.002 C 
BRANCH  11  12
HETATM   12  C9  BTN A 300       9.347   0.085 -10.982  1.00 20.09     0.011 C 
BRANCH  12  13
HETATM   13  C10 BTN A 300      10.423   0.300  -9.862  1.00 20.77     0.098 C 
BRANCH  13  14
HETATM   14  C11 BTN A 300      11.103   1.614 -10.013  1.00 21.57     0.185 C 
HETATM   15  O11 BTN A 300      12.298   1.769 -10.301  1.00 21.65    -0.647 OA
HETATM   16  O12 BTN A 300      10.528   2.586  -9.333  1.00 22.67    -0.647 OA
ENDBRANCH  13  14
ENDBRANCH  12  13
ENDBRANCH  11  12
ENDBRANCH  10  11
ENDBRANCH   3  10
TORSDOF 5
ENDMDL
MODEL 3
REMARK VINA RESULT:    -5.681      3.513      5.114
REMARK INTER + INTRA:          -7.579
REMARK INTER:                  -7.256
REMARK INTRA:                  -0.323
REMARK UNBOUND:                -0.237
REMARK  5 active torsions:
REMARK  status: ('A' for Active; 'I' for Inactive)
REMARK    1  A    between atoms: C2_3  and  C7_10 
REMARK    2  A    between atoms: C7_10  and  C8_11 
REMARK    3  A    between atoms: C8_11  and  C9_12 
REMARK    4  A    between atoms: C9_12  and  C10_13 
REMARK    5  A    between atoms: C10_13  and  C11_14 
ROOT
HETATM    1  N1  BTN A 300       8.938   2.390 -14.071  1.00 17.73    -0.217 NA
HETATM    2  S1  BTN A 300      10.099   3.243 -11.083  1.00 16.59    -0.137 SA
HETATM    3  C2  BTN A 300      10.700   1.511 -11.235  1.00 17.74     0.072 C 
HETATM    4  N2  BTN A 300       8.924   0.647 -12.755  1.00 17.92    -0.217 NA
HETATM    5  C3  BTN A 300       8.167   1.422 -13.563  1.00 17.95     0.360 A 
HETATM    6  O3  BTN A 300       6.951   1.207 -13.758  1.00 17.93    -0.243 OA
HETATM    7  C4  BTN A 300      10.309   1.109 -12.676  1.00 17.65     0.141 A 
HETATM    8  C5  BTN A 300      10.319   2.324 -13.598  1.00 17.47     0.142 A 
HETATM    9  C6  BTN A 300      10.719   3.548 -12.780  1.00 17.06     0.084 C 
ENDROOT
BRANCH   3  10
HETATM   10  C7  BTN A 300      10.269   0.471 -10.282  1.00 18.33     0.013 C 
BRANCH  10  11
HETATM   11  C8  BTN A 300      10.028   0.733  -8.796  1.00 19.24     0.002 C 
BRANCH  11  12
HETATM   12  C9  BTN A 300      10.929   0.010  -7.878  1.00 20.09     0.011 C 
BRANCH  12  13
HETATM   13  C10 BTN A 300      12.021  -0.834  -8.622  1.00 20.77     0.098 C 
BRANCH  13  14
HETATM   14  C11 BTN A 300      13.335  -0.138  -8.618  1.00 21.57     0.185 C 
HETATM   15  O11 BTN A 300      13.641   0.812  -9.352  1.00 21.65    -0.647 OA
HETATM   16  O12 BTN A 300      14.327  -0.887  -8.178  1.00 22.67    -0.647 OA
ENDBRANCH  13  14
ENDBRANCH  12  13
ENDBRANCH  11  12
ENDBRANCH  10  11
ENDBRANCH   3  10
TORSDOF 5
ENDMDL
MODEL 4
REMARK VINA RESULT:    -5.495      1.996      2.512
REMARK INTER + INTRA:          -7.338
REMARK INTER:                  -7.011
REMARK INTRA:                  -0.327
REMARK UNBOUND:                -0.237
REMARK  5 active torsions:
REMARK  status: ('A' for Active; 'I' for Inactive)
REMARK    1  A    between atoms: C2_3  and  C7_10 
REMARK    2  A    between atoms: C7_10  and  C8_11 
REMARK    3  A    between atoms: C8_11  and  C9_12 
REMARK    4  A    between atoms: C9_12  and  C10_13 
REMARK    5  A    between atoms: C10_13  and  C11_14 
ROOT
HETATM    1  N1  BTN A 300       4.148   3.798 -15.082  1.00 17.73    -0.217 NA
HETATM    2  S1  BTN A 300       6.740   5.719 -15.852  1.00 16.59    -0.137 SA
HETATM    3  C2  BTN A 300       7.565   4.122 -15.461  1.00 17.74     0.072 C 
HETATM    4  N2  BTN A 300       5.871   3.224 -13.869  1.00 17.92    -0.217 NA
HETATM    5  C3  BTN A 300       4.577   3.615 -13.829  1.00 17.95     0.360 A 
HETATM    6  O3  BTN A 300       3.949   3.758 -12.758  1.00 17.93    -0.243 OA
HETATM    7  C4  BTN A 300       6.388   3.144 -15.234  1.00 17.65     0.141 A 
HETATM    8  C5  BTN A 300       5.184   3.542 -16.082  1.00 17.47     0.142 A 
HETATM    9  C6  BTN A 300       5.547   4.787 -16.883  1.00 17.06     0.084 C 
ENDROOT
BRANCH   3  10
HETATM   10  C7  BTN A 300       8.534   4.018 -14.353  1.00 18.33     0.013 C 
BRANCH  10  11
HETATM   11  C8  BTN A 300       9.652   5.030 -14.111  1.00 19.24     0.002 C 
BRANCH  11  12
HETATM   12  C9  BTN A 300      10.969   4.444 -13.796  1.00 20.09     0.011 C 
BRANCH  12  13
HETATM   13  C10 BTN A 300      10.889   2.938 -13.367  1.00 20.77     0.098 C 
BRANCH  13  14
HETATM   14  C11 BTN A 300      11.249   2.767 -11.934  1.00 21.57     0.185 C 
HETATM   15  O11 BTN A 300      11.972   1.868 -11.483  1.00 21.65    -0.647 OA
HETATM   16  O12 BTN A 300      10.366   3.288 -11.103  1.00 22.67    -0.647 OA
ENDBRANCH  13  14
ENDBRANCH  12  13
ENDBRANCH  11  12
ENDBRANCH  10  11
ENDBRANCH   3  10
TORSDOF 5
ENDMDL
MODEL 5
REMARK VINA RESULT:    -4.377     15.781     17.316
REMARK INTER + INTRA:          -5.893
REMARK INTER:                  -5.683
REMARK INTRA:                  -0.210
REMARK UNBOUND:                -0.237
REMARK  5 active torsions:
REMARK  status: ('A' for Active; 'I' for Inactive)
REMARK    1  A    between atoms: C2_3  and  C7_10 
REMARK    2  A    between atoms: C7_10  and  C8_11 
REMARK    3  A    between atoms: C8_11  and  C9_12 
REMARK    4  A    between atoms: C9_12  and  C10_13 
REMARK    5  A    between atoms: C10_13  and  C11_14 
ROOT
HETATM    1  N1  BTN A 300      19.154  14.983 -13.032  1.00 17.73    -0.217 NA
HETATM    2  S1  BTN A 300      22.253  15.533 -11.982  1.00 16.59    -0.137 SA
HETATM    3  C2  BTN A 300      22.444  13.943 -12.888  1.00 17.74     0.072 C 
HETATM    4  N2  BTN A 300      20.127  13.079 -12.588  1.00 17.92    -0.217 NA
HETATM    5  C3  BTN A 300      19.050  13.853 -12.325  1.00 17.95     0.360 A 
HETATM    6  O3  BTN A 300      18.143  13.502 -11.540  1.00 17.93    -0.243 OA
HETATM    7  C4  BTN A 300      21.053  13.711 -13.524  1.00 17.65     0.141 A 
HETATM    8  C5  BTN A 300      20.374  15.040 -13.837  1.00 17.47     0.142 A 
HETATM    9  C6  BTN A 300      21.305  16.171 -13.414  1.00 17.06     0.084 C 
ENDROOT
BRANCH   3  10
HETATM   10  C7  BTN A 300      22.896  12.723 -12.193  1.00 18.33     0.013 C 
BRANCH  10  11
HETATM   11  C8  BTN A 300      23.811  11.678 -12.830  1.00 19.24     0.002 C 
BRANCH  11  12
HETATM   12  C9  BTN A 300      25.213  11.709 -12.370  1.00 20.09     0.011 C 
BRANCH  12  13
HETATM   13  C10 BTN A 300      25.364  11.451 -10.830  1.00 20.77     0.098 C 
BRANCH  13  14
HETATM   14  C11 BTN A 300      26.415  10.435 -10.555  1.00 21.57     0.185 C 
HETATM   15  O11 BTN A 300      27.162   9.933 -11.405  1.00 21.65    -0.647 OA
HETATM   16  O12 BTN A 300      26.181   9.715  -9.475  1.00 22.67    -0.647 OA
ENDBRANCH  13  14
ENDBRANCH  12  13
ENDBRANCH  11  12
ENDBRANCH  10  11
ENDBRANCH   3  10
TORSDOF 5
ENDMDL
MODEL 6
REMARK VINA RESULT:    -4.311      2.218      2.875
REMARK INTER + INTRA:          -5.808
REMARK INTER:                  -5.548
REMARK INTRA:                  -0.259
REMARK UNBOUND:                -0.237
REMARK  5 active torsions:
REMARK  status: ('A' for Active; 'I' for Inactive)
REMARK    1  A    between atoms: C2_3  and  C7_10 
REMARK    2  A    between atoms: C7_10  and  C8_11 
REMARK    3  A    between atoms: C8_11  and  C9_12 
REMARK    4  A    between atoms: C9_12  and  C10_13 
REMARK    5  A    between atoms: C10_13  and  C11_14 
ROOT
HETATM    1  N1  BTN A 300       7.890   5.345 -15.249  1.00 17.73    -0.217 NA
HETATM    2  S1  BTN A 300       7.009   2.317 -16.278  1.00 16.59    -0.137 SA
HETATM    3  C2  BTN A 300       6.509   2.268 -14.508  1.00 17.74     0.072 C 
HETATM    4  N2  BTN A 300       8.160   3.911 -13.623  1.00 17.92    -0.217 NA
HETATM    5  C3  BTN A 300       8.773   4.857 -14.370  1.00 17.95     0.360 A 
HETATM    6  O3  BTN A 300       9.971   5.172 -14.208  1.00 17.93    -0.243 OA
HETATM    7  C4  BTN A 300       6.765   3.711 -14.012  1.00 17.65     0.141 A 
HETATM    8  C5  BTN A 300       6.576   4.714 -15.145  1.00 17.47     0.142 A 
HETATM    9  C6  BTN A 300       6.190   3.950 -16.407  1.00 17.06     0.084 C 
ENDROOT
BRANCH   3  10
HETATM   10  C7  BTN A 300       7.108   1.295 -13.576  1.00 18.33     0.013 C 
BRANCH  10  11
HETATM   11  C8  BTN A 300       8.354   0.472 -13.898  1.00 19.24     0.002 C 
BRANCH  11  12
HETATM   12  C9  BTN A 300       9.213   0.156 -12.740  1.00 20.09     0.011 C 
BRANCH  12  13
HETATM   13  C10 BTN A 300      10.374   1.188 -12.532  1.00 20.77     0.098 C 
BRANCH  13  14
HETATM   14  C11 BTN A 300      10.923   1.111 -11.152  1.00 21.57     0.185 C 
HETATM   15  O11 BTN A 300      10.250   0.957 -10.124  1.00 21.65    -0.647 OA
HETATM   16  O12 BTN A 300      12.084   1.721 -11.012  1.00 22.67    -0.647 OA
ENDBRANCH  13  14
ENDBRANCH  12  13
ENDBRANCH  11  12
ENDBRANCH  10  11
ENDBRANCH   3  10
TORSDOF 5
ENDMDL
MODEL 7
REMARK VINA RESULT:    -4.243     16.102     17.209
REMARK INTER + INTRA:          -5.719
REMARK INTER:                  -5.179
REMARK INTRA:                  -0.541
REMARK UNBOUND:                -0.237
REMARK  5 active torsions:
REMARK  status: ('A' for Active; 'I' for Inactive)
REMARK    1  A    between atoms: C2_3  and  C7_10 
REMARK    2  A    between atoms: C7_10  and  C8_11 
REMARK    3  A    between atoms: C8_11  and  C9_12 
REMARK    4  A    between atoms: C9_12  and  C10_13 
REMARK    5  A    between atoms: C10_13  and  C11_14 
ROOT
HETATM    1  N1  BTN A 300      19.165  18.139 -14.821  1.00 17.73    -0.217 NA
HETATM    2  S1  BTN A 300      18.678  16.826 -11.814  1.00 16.59    -0.137 SA
HETATM    3  C2  BTN A 300      19.899  15.656 -12.537  1.00 17.74     0.072 C 
HETATM    4  N2  BTN A 300      19.313  15.964 -14.939  1.00 17.92    -0.217 NA
HETATM    5  C3  BTN A 300      18.689  17.053 -15.440  1.00 17.95     0.360 A 
HETATM    6  O3  BTN A 300      17.821  16.981 -16.337  1.00 17.93    -0.243 OA
HETATM    7  C4  BTN A 300      20.274  16.303 -13.892  1.00 17.65     0.141 A 
HETATM    8  C5  BTN A 300      20.173  17.823 -13.811  1.00 17.47     0.142 A 
HETATM    9  C6  BTN A 300      19.732  18.204 -12.402  1.00 17.06     0.084 C 
ENDROOT
BRANCH   3  10
HETATM   10  C7  BTN A 300      19.567  14.232 -12.728  1.00 18.33     0.013 C 
BRANCH  10  11
HETATM   11  C8  BTN A 300      20.493  13.086 -12.324  1.00 19.24     0.002 C 
BRANCH  11  12
HETATM   12  C9  BTN A 300      21.931  13.339 -12.536  1.00 20.09     0.011 C 
BRANCH  12  13
HETATM   13  C10 BTN A 300      22.507  12.609 -13.799  1.00 20.77     0.098 C 
BRANCH  13  14
HETATM   14  C11 BTN A 300      22.464  13.489 -14.996  1.00 21.57     0.185 C 
HETATM   15  O11 BTN A 300      23.055  14.572 -15.107  1.00 21.65    -0.647 OA
HETATM   16  O12 BTN A 300      21.376  13.333 -15.726  1.00 22.67    -0.647 OA
ENDBRANCH  13  14
ENDBRANCH  12  13
ENDBRANCH  11  12
ENDBRANCH  10  11
ENDBRANCH   3  10
TORSDOF 5
ENDMDL
MODEL 8
REMARK VINA RESULT:    -4.146     16.128     16.586
REMARK INTER + INTRA:          -5.595
REMARK INTER:                  -5.306
REMARK INTRA:                  -0.289
REMARK UNBOUND:                -0.237
REMARK  5 active torsions:
REMARK  status: ('A' for Active; 'I' for Inactive)
REMARK    1  A    between atoms: C2_3  and  C7_10 
REMARK    2  A    between atoms: C7_10  and  C8_11 
REMARK    3  A    between atoms: C8_11  and  C9_12 
REMARK    4  A    between atoms: C9_12  and  C10_13 
REMARK    5  A    between atoms: C10_13  and  C11_14 
ROOT
HETATM    1  N1  BTN A 300      18.302  17.272 -13.894  1.00 17.73    -0.217 NA
HETATM    2  S1  BTN A 300      18.609  14.407 -12.250  1.00 16.59    -0.137 SA
HETATM    3  C2  BTN A 300      20.287  14.599 -12.978  1.00 17.74     0.072 C 
HETATM    4  N2  BTN A 300      19.659  15.947 -14.977  1.00 17.92    -0.217 NA
HETATM    5  C3  BTN A 300      18.533  16.689 -15.075  1.00 17.95     0.360 A 
HETATM    6  O3  BTN A 300      17.871  16.772 -16.132  1.00 17.93    -0.243 OA
HETATM    7  C4  BTN A 300      20.245  15.997 -13.639  1.00 17.65     0.141 A 
HETATM    8  C5  BTN A 300      19.299  16.924 -12.883  1.00 17.47     0.142 A 
HETATM    9  C6  BTN A 300      18.703  16.154 -11.709  1.00 17.06     0.084 C 
ENDROOT
BRANCH   3  10
HETATM   10  C7  BTN A 300      20.823  13.603 -13.925  1.00 18.33     0.013 C 
BRANCH  10  11
HETATM   11  C8  BTN A 300      22.290  13.541 -14.345  1.00 19.24     0.002 C 
BRANCH  11  12
HETATM   12  C9  BTN A 300      23.245  13.275 -13.253  1.00 20.09     0.011 C 
BRANCH  12  13
HETATM   13  C10 BTN A 300      23.329  11.759 -12.861  1.00 20.77     0.098 C 
BRANCH  13  14
HETATM   14  C11 BTN A 300      23.444  11.588 -11.388  1.00 21.57     0.185 C 
HETATM   15  O11 BTN A 300      24.473  11.251 -10.788  1.00 21.65    -0.647 OA
HETATM   16  O12 BTN A 300      22.297  11.307 -10.800  1.00 22.67    -0.647 OA
ENDBRANCH  13  14
ENDBRANCH  12  13
ENDBRANCH  11  12
ENDBRANCH  10  11
ENDBRANCH   3  10
TORSDOF 5
ENDMDL
MODEL 9
REMARK VINA RESULT:    -3.944     16.424     16.858
REMARK INTER + INTRA:          -5.334
REMARK INTER:                  -5.138
REMARK INTRA:                  -0.195
REMARK UNBOUND:                -0.237
REMARK  5 active torsions:
REMARK  status: ('A' for Active; 'I' for Inactive)
REMARK    1  A    between atoms: C2_3  and  C7_10 
REMARK    2  A    between atoms: C7_10  and  C8_11 
REMARK    3  A    between atoms: C8_11  and  C9_12 
REMARK    4  A    between atoms: C9_12  and  C10_13 
REMARK    5  A    between atoms: C10_13  and  C11_14 
ROOT
HETATM    1  N1  BTN A 300      18.071  17.912 -14.338  1.00 17.73    -0.217 NA
HETATM    2  S1  BTN A 300      18.545  15.301 -12.347  1.00 16.59    -0.137 SA
HETATM    3  C2  BTN A 300      20.159  15.397 -13.225  1.00 17.74     0.072 C 
HETATM    4  N2  BTN A 300      19.358  16.455 -15.334  1.00 17.92    -0.217 NA
HETATM    5  C3  BTN A 300      18.218  17.173 -15.443  1.00 17.95     0.360 A 
HETATM    6  O3  BTN A 300      17.474  17.108 -16.445  1.00 17.93    -0.243 OA
HETATM    7  C4  BTN A 300      20.046  16.691 -14.066  1.00 17.65     0.141 A 
HETATM    8  C5  BTN A 300      19.149  17.710 -13.371  1.00 17.47     0.142 A 
HETATM    9  C6  BTN A 300      18.657  17.107 -12.060  1.00 17.06     0.084 C 
ENDROOT
BRANCH   3  10
HETATM   10  C7  BTN A 300      20.634  14.283 -14.066  1.00 18.33     0.013 C 
BRANCH  10  11
HETATM   11  C8  BTN A 300      21.898  13.479 -13.769  1.00 19.24     0.002 C 
BRANCH  11  12
HETATM   12  C9  BTN A 300      22.690  13.095 -14.954  1.00 20.09     0.011 C 
BRANCH  12  13
HETATM   13  C10 BTN A 300      22.438  11.618 -15.413  1.00 20.77     0.098 C 
BRANCH  13  14
HETATM   14  C11 BTN A 300      23.667  10.792 -15.272  1.00 21.57     0.185 C 
HETATM   15  O11 BTN A 300      23.687   9.582 -15.009  1.00 21.65    -0.647 OA
HETATM   16  O12 BTN A 300      24.733  11.489 -14.930  1.00 22.67    -0.647 OA
ENDBRANCH  13  14
ENDBRANCH  12  13
ENDBRANCH  11  12
ENDBRANCH  10  11
ENDBRANCH   3  10
TORSDOF 5
ENDMDL
