MODEL 1
REMARK VINA RESULT:    -5.288      0.000      0.000
REMARK INTER + INTRA:          -7.248
REMARK INTER:                  -6.833
REMARK INTRA:                  -0.415
REMARK UNBOUND:                -0.415
REMARK  5 active torsions:
REMARK  status: ('A' for Active; 'I' for Inactive)
REMARK    1  A    between atoms: C2_3  and  C7_10 
REMARK    2  A    between atoms: C7_10  and  C8_11 
REMARK    3  A    between atoms: C8_11  and  C9_12 
REMARK    4  A    between atoms: C9_12  and  C10_13 
REMARK    5  A    between atoms: C10_13  and  C11_14 
ROOT
HETATM    1  N1  BTN A 300       6.021   1.734 -15.338  1.00 17.73    -0.217 NA
HETATM    2  S1  BTN A 300       5.966   4.735 -13.927  1.00 16.59    -0.137 SA
HETATM    3  C2  BTN A 300       7.706   4.633 -14.513  1.00 17.74     0.072 C 
HETATM    4  N2  BTN A 300       7.966   2.156 -14.436  1.00 17.92    -0.217 NA
HETATM    5  C3  BTN A 300       6.938   1.278 -14.477  1.00 17.95     0.360 A 
HETATM    6  O3  BTN A 300       6.919   0.232 -13.794  1.00 17.93    -0.243 OA
HETATM    7  C4  BTN A 300       7.750   3.308 -15.310  1.00 17.65     0.141 A 
HETATM    8  C5  BTN A 300       6.394   3.012 -15.942  1.00 17.47     0.142 A 
HETATM    9  C6  BTN A 300       5.434   4.138 -15.574  1.00 17.06     0.084 C 
ENDROOT
BRANCH   3  10
HETATM   10  C7  BTN A 300       8.833   4.694 -13.564  1.00 18.33     0.013 C 
BRANCH  10  11
HETATM   11  C8  BTN A 300      10.288   4.880 -13.989  1.00 19.24     0.002 C 
BRANCH  11  12
HETATM   12  C9  BTN A 300      11.251   3.963 -13.350  1.00 20.09     0.011 C 
BRANCH  12  13
HETATM   13  C10 BTN A 300      10.671   3.243 -12.084  1.00 20.77     0.098 C 
BRANCH  13  14
HETATM   14  C11 BTN A 300      11.235   1.875 -11.936  1.00 21.57     0.185 C 
HETATM   15  O11 BTN A 300      10.685   0.832 -12.318  1.00 21.65    -0.647 OA
HETATM   16  O12 BTN A 300      12.087   1.761 -10.937  1.00 22.67    -0.647 OA
ENDBRANCH  13  14
ENDBRANCH  12  13
ENDBRANCH  11  12
ENDBRANCH  10  11
ENDBRANCH   3  10
TORSDOF 5
ENDMDL
MODEL 2
REMARK VINA RESULT:    -4.568      2.608      3.226
REMARK INTER + INTRA:          -6.318
REMARK INTER:                  -5.937
REMARK INTRA:                  -0.381
REMARK UNBOUND:                -0.415
REMARK  5 active torsions:
REMARK  status: ('A' for Active; 'I' for Inactive)
REMARK    1  A    between atoms: C2_3  and  C7_10 
REMARK    2  A    between atoms: C7_10  and  C8_11 
REMARK    3  A    between atoms: C8_11  and  C9_12 
REMARK    4  A    between atoms: C9_12  and  C10_13 
REMARK    5  A    between atoms: C10_13  and  C11_14 
ROOT
HETATM    1  N1  BTN A 300       4.862   4.513 -14.861  1.00 17.73    -0.217 NA
HETATM    2  S1  BTN A 300       5.965   1.551 -15.867  1.00 16.59    -0.137 SA
HETATM    3  C2  BTN A 300       6.755   1.699 -14.212  1.00 17.74     0.072 C 
HETATM    4  N2  BTN A 300       6.881   4.184 -14.096  1.00 17.92    -0.217 NA
HETATM    5  C3  BTN A 300       6.097   5.024 -14.808  1.00 17.95     0.360 A 
HETATM    6  O3  BTN A 300       6.525   6.087 -15.306  1.00 17.93    -0.243 OA
HETATM    7  C4  BTN A 300       6.157   3.002 -13.632  1.00 17.65     0.141 A 
HETATM    8  C5  BTN A 300       4.746   3.233 -14.164  1.00 17.47     0.142 A 
HETATM    9  C6  BTN A 300       4.389   2.084 -15.101  1.00 17.06     0.084 C 
ENDROOT
BRANCH   3  10
HETATM   10  C7  BTN A 300       8.223   1.704 -14.067  1.00 18.33     0.013 C 
BRANCH  10  11
HETATM   11  C8  BTN A 300       8.984   0.764 -13.134  1.00 19.24     0.002 C 
BRANCH  11  12
HETATM   12  C9  BTN A 300       9.987   1.416 -12.270  1.00 20.09     0.011 C 
BRANCH  12  13
HETATM   13  C10 BTN A 300       9.992   2.978 -12.400  1.00 20.77     0.098 C 
BRANCH  13  14
HETATM   14  C11 BTN A 300      11.225   3.459 -13.078  1.00 21.57     0.185 C 
HETATM   15  O11 BTN A 300      11.294   3.819 -14.261  1.00 21.65    -0.647 OA
HETATM   16  O12 BTN A 300      12.337   3.005 -12.533  1.00 22.67    -0.647 OA
ENDBRANCH  13  14
ENDBRANCH  12  13
ENDBRANCH  11  12
ENDBRANCH  10  11
ENDBRANCH   3  10
TORSDOF 5
ENDMDL
MODEL 3
REMARK VINA RESULT:    -4.458      2.618      3.330
REMARK INTER + INTRA:          -6.176
REMARK INTER:                  -5.975
REMARK INTRA:                  -0.201
REMARK UNBOUND:                -0.415
REMARK  5 active torsions:
REMARK  status: ('A' for Active; 'I' for Inactive)
REMARK    1  A    between atoms: C2_3  and  C7_10 
REMARK    2  A    between atoms: C7_10  and  C8_11 
REMARK    3  A    between atoms: C8_11  and  C9_12 
REMARK    4  A    between atoms: C9_12  and  C10_13 
REMARK    5  A    between atoms: C10_13  and  C11_14 
ROOT
HETATM    1  N1  BTN A 300       4.545   3.730 -17.928  1.00 17.73    -0.217 NA
HETATM    2  S1  BTN A 300       5.820   2.239 -15.253  1.00 16.59    -0.137 SA
HETATM    3  C2  BTN A 300       5.636   3.970 -14.660  1.00 17.74     0.072 C 
HETATM    4  N2  BTN A 300       5.841   5.126 -16.858  1.00 17.92    -0.217 NA
HETATM    5  C3  BTN A 300       5.601   4.542 -18.054  1.00 17.95     0.360 A 
HETATM    6  O3  BTN A 300       6.293   4.774 -19.068  1.00 17.93    -0.243 OA
HETATM    7  C4  BTN A 300       4.908   4.684 -15.824  1.00 17.65     0.141 A 
HETATM    8  C5  BTN A 300       4.001   3.712 -16.571  1.00 17.47     0.142 A 
HETATM    9  C6  BTN A 300       4.114   2.342 -15.911  1.00 17.06     0.084 C 
ENDROOT
BRANCH   3  10
HETATM   10  C7  BTN A 300       6.809   4.757 -14.235  1.00 18.33     0.013 C 
BRANCH  10  11
HETATM   11  C8  BTN A 300       8.252   4.296 -14.430  1.00 19.24     0.002 C 
BRANCH  11  12
HETATM   12  C9  BTN A 300       9.165   4.604 -13.313  1.00 20.09     0.011 C 
BRANCH  12  13
HETATM   13  C10 BTN A 300      10.677   4.415 -13.682  1.00 20.77     0.098 C 
BRANCH  13  14
HETATM   14  C11 BTN A 300      11.277   3.279 -12.932  1.00 21.57     0.185 C 
HETATM   15  O11 BTN A 300      12.472   3.181 -12.621  1.00 21.65    -0.647 OA
HETATM   16  O12 BTN A 300      10.606   2.151 -13.060  1.00 22.67    -0.647 OA
ENDBRANCH  13  14
ENDBRANCH  12  13
ENDBRANCH  11  12
ENDBRANCH  10  11
ENDBRANCH   3  10
TORSDOF 5
ENDMDL
MODEL 4
REMARK VINA RESULT:    -4.049     11.125     12.341
REMARK INTER + INTRA:          -5.647
REMARK INTER:                  -5.180
REMARK INTRA:                  -0.467
REMARK UNBOUND:                -0.415
REMARK  5 active torsions:
REMARK  status: ('A' for Active; 'I' for Inactive)
REMARK    1  A    between atoms: C2_3  and  C7_10 
REMARK    2  A    between atoms: C7_10  and  C8_11 
REMARK    3  A    between atoms: C8_11  and  C9_12 
REMARK    4  A    between atoms: C9_12  and  C10_13 
REMARK    5  A    between atoms: C10_13  and  C11_14 
ROOT
HETATM    1  N1  BTN A 300       9.843  14.544 -12.854  1.00 17.73    -0.217 NA
HETATM    2  S1  BTN A 300       7.562  16.315 -14.487  1.00 16.59    -0.137 SA
HETATM    3  C2  BTN A 300       6.590  15.686 -13.057  1.00 17.74     0.072 C 
HETATM    4  N2  BTN A 300       7.886  13.600 -12.632  1.00 17.92    -0.217 NA
HETATM    5  C3  BTN A 300       9.165  13.403 -13.021  1.00 17.95     0.360 A 
HETATM    6  O3  BTN A 300       9.577  12.305 -13.453  1.00 17.93    -0.243 OA
HETATM    7  C4  BTN A 300       7.644  14.969 -12.180  1.00 17.65     0.141 A 
HETATM    8  C5  BTN A 300       9.012  15.628 -12.333  1.00 17.47     0.142 A 
HETATM    9  C6  BTN A 300       8.882  16.791 -13.310  1.00 17.06     0.084 C 
ENDROOT
BRANCH   3  10
HETATM   10  C7  BTN A 300       5.418  14.814 -13.259  1.00 18.33     0.013 C 
BRANCH  10  11
HETATM   11  C8  BTN A 300       4.049  15.081 -12.637  1.00 19.24     0.002 C 
BRANCH  11  12
HETATM   12  C9  BTN A 300       3.648  14.137 -11.575  1.00 20.09     0.011 C 
BRANCH  12  13
HETATM   13  C10 BTN A 300       4.463  12.798 -11.600  1.00 20.77     0.098 C 
BRANCH  13  14
HETATM   14  C11 BTN A 300       4.878  12.394 -10.230  1.00 21.57     0.185 C 
HETATM   15  O11 BTN A 300       4.112  12.247  -9.267  1.00 21.65    -0.647 OA
HETATM   16  O12 BTN A 300       6.130  12.696  -9.948  1.00 22.67    -0.647 OA
ENDBRANCH  13  14
ENDBRANCH  12  13
ENDBRANCH  11  12
ENDBRANCH  10  11
ENDBRANCH   3  10
TORSDOF 5
ENDMDL
MODEL 5
REMARK VINA RESULT:    -3.884     11.860     12.743
REMARK INTER + INTRA:          -5.434
REMARK INTER:                  -4.984
REMARK INTRA:                  -0.449
REMARK UNBOUND:                -0.415
REMARK  5 active torsions:
REMARK  status: ('A' for Active; 'I' for Inactive)
REMARK    1  A    between atoms: C2_3  and  C7_10 
REMARK    2  A    between atoms: C7_10  and  C8_11 
REMARK    3  A    between atoms: C8_11  and  C9_12 
REMARK    4  A    between atoms: C9_12  and  C10_13 
REMARK    5  A    between atoms: C10_13  and  C11_14 
ROOT
HETATM    1  N1  BTN A 300       4.310  13.934 -10.215  1.00 17.73    -0.217 NA
HETATM    2  S1  BTN A 300       7.507  14.193  -9.369  1.00 16.59    -0.137 SA
HETATM    3  C2  BTN A 300       7.558  14.634 -11.155  1.00 17.74     0.072 C 
HETATM    4  N2  BTN A 300       5.564  13.339 -11.901  1.00 17.92    -0.217 NA
HETATM    5  C3  BTN A 300       4.557  12.951 -11.087  1.00 17.95     0.360 A 
HETATM    6  O3  BTN A 300       3.994  11.840 -11.194  1.00 17.93    -0.243 OA
HETATM    7  C4  BTN A 300       6.068  14.670 -11.569  1.00 17.65     0.141 A 
HETATM    8  C5  BTN A 300       5.191  15.087 -10.393  1.00 17.47     0.142 A 
HETATM    9  C6  BTN A 300       6.087  15.335  -9.185  1.00 17.06     0.084 C 
ENDROOT
BRANCH   3  10
HETATM   10  C7  BTN A 300       8.334  13.826 -12.115  1.00 18.33     0.013 C 
BRANCH  10  11
HETATM   11  C8  BTN A 300       9.493  14.379 -12.942  1.00 19.24     0.002 C 
BRANCH  11  12
HETATM   12  C9  BTN A 300       9.793  15.807 -12.724  1.00 20.09     0.011 C 
BRANCH  12  13
HETATM   13  C10 BTN A 300       9.417  16.711 -13.949  1.00 20.77     0.098 C 
BRANCH  13  14
HETATM   14  C11 BTN A 300       7.989  16.538 -14.328  1.00 21.57     0.185 C 
HETATM   15  O11 BTN A 300       7.587  16.120 -15.422  1.00 21.65    -0.647 OA
HETATM   16  O12 BTN A 300       7.168  17.324 -13.658  1.00 22.67    -0.647 OA
ENDBRANCH  13  14
ENDBRANCH  12  13
ENDBRANCH  11  12
ENDBRANCH  10  11
ENDBRANCH   3  10
TORSDOF 5
ENDMDL
MODEL 6
REMARK VINA RESULT:    -3.876     17.093     18.208
REMARK INTER + INTRA:          -5.423
REMARK INTER:                  -5.092
REMARK INTRA:                  -0.331
REMARK UNBOUND:                -0.415
REMARK  5 active torsions:
REMARK  status: ('A' for Active; 'I' for Inactive)
REMARK    1  A    between atoms: C2_3  and  C7_10 
REMARK    2  A    between atoms: C7_10  and  C8_11 
REMARK    3  A    between atoms: C8_11  and  C9_12 
REMARK    4  A    between atoms: C9_12  and  C10_13 
REMARK    5  A    between atoms: C10_13  and  C11_14 
ROOT
HETATM    1  N1  BTN A 300      24.800  11.678 -16.517  1.00 17.73    -0.217 NA
HETATM    2  S1  BTN A 300      25.461  12.025 -13.285  1.00 16.59    -0.137 SA
HETATM    3  C2  BTN A 300      23.704  11.483 -13.248  1.00 17.74     0.072 C 
HETATM    4  N2  BTN A 300      23.010  12.366 -15.473  1.00 17.92    -0.217 NA
HETATM    5  C3  BTN A 300      23.860  12.629 -16.490  1.00 17.95     0.360 A 
HETATM    6  O3  BTN A 300      23.726  13.618 -17.242  1.00 17.93    -0.243 OA
HETATM    7  C4  BTN A 300      23.384  11.165 -14.728  1.00 17.65     0.141 A 
HETATM    8  C5  BTN A 300      24.633  10.683 -15.459  1.00 17.47     0.142 A 
HETATM    9  C6  BTN A 300      25.796  10.672 -14.473  1.00 17.06     0.084 C 
ENDROOT
BRANCH   3  10
HETATM   10  C7  BTN A 300      22.654  12.346 -12.675  1.00 18.33     0.013 C 
BRANCH  10  11
HETATM   11  C8  BTN A 300      22.918  13.745 -12.124  1.00 19.24     0.002 C 
BRANCH  11  12
HETATM   12  C9  BTN A 300      21.914  14.763 -12.491  1.00 20.09     0.011 C 
BRANCH  12  13
HETATM   13  C10 BTN A 300      20.553  14.146 -12.963  1.00 20.77     0.098 C 
BRANCH  13  14
HETATM   14  C11 BTN A 300      19.733  15.146 -13.698  1.00 21.57     0.185 C 
HETATM   15  O11 BTN A 300      18.599  15.520 -13.368  1.00 21.65    -0.647 OA
HETATM   16  O12 BTN A 300      20.036  15.237 -14.978  1.00 22.67    -0.647 OA
ENDBRANCH  13  14
ENDBRANCH  12  13
ENDBRANCH  11  12
ENDBRANCH  10  11
ENDBRANCH   3  10
TORSDOF 5
ENDMDL
MODEL 7
REMARK VINA RESULT:    -3.848      3.748      6.393
REMARK INTER + INTRA:          -5.387
REMARK INTER:                  -4.976
REMARK INTRA:                  -0.411
REMARK UNBOUND:                -0.415
REMARK  5 active torsions:
REMARK  status: ('A' for Active; 'I' for Inactive)
REMARK    1  A    between atoms: C2_3  and  C7_10 
REMARK    2  A    between atoms: C7_10  and  C8_11 
REMARK    3  A    between atoms: C8_11  and  C9_12 
REMARK    4  A    between atoms: C9_12  and  C10_13 
REMARK    5  A    between atoms: C10_13  and  C11_14 
ROOT
HETATM    1  N1  BTN A 300       8.576   3.178 -13.689  1.00 17.73    -0.217 NA
HETATM    2  S1  BTN A 300       5.303   3.593 -14.033  1.00 16.59    -0.137 SA
HETATM    3  C2  BTN A 300       5.943   4.426 -15.543  1.00 17.74     0.072 C 
HETATM    4  N2  BTN A 300       8.178   5.091 -14.665  1.00 17.92    -0.217 NA
HETATM    5  C3  BTN A 300       8.798   4.495 -13.622  1.00 17.95     0.360 A 
HETATM    6  O3  BTN A 300       9.455   5.135 -12.773  1.00 17.93    -0.243 OA
HETATM    7  C4  BTN A 300       7.463   4.136 -15.509  1.00 17.65     0.141 A 
HETATM    8  C5  BTN A 300       7.742   2.799 -14.829  1.00 17.47     0.142 A 
HETATM    9  C6  BTN A 300       6.412   2.185 -14.406  1.00 17.06     0.084 C 
ENDROOT
BRANCH   3  10
HETATM   10  C7  BTN A 300       5.705   5.862 -15.779  1.00 18.33     0.013 C 
BRANCH  10  11
HETATM   11  C8  BTN A 300       4.479   6.407 -16.510  1.00 19.24     0.002 C 
BRANCH  11  12
HETATM   12  C9  BTN A 300       3.966   5.551 -17.596  1.00 20.09     0.011 C 
BRANCH  12  13
HETATM   13  C10 BTN A 300       4.187   6.164 -19.023  1.00 20.77     0.098 C 
BRANCH  13  14
HETATM   14  C11 BTN A 300       5.422   5.626 -19.655  1.00 21.57     0.185 C 
HETATM   15  O11 BTN A 300       6.154   4.756 -19.163  1.00 21.65    -0.647 OA
HETATM   16  O12 BTN A 300       5.986   6.463 -20.503  1.00 22.67    -0.647 OA
ENDBRANCH  13  14
ENDBRANCH  12  13
ENDBRANCH  11  12
ENDBRANCH  10  11
ENDBRANCH   3  10
TORSDOF 5
ENDMDL
MODEL 8
REMARK VINA RESULT:    -3.801     16.584     17.678
REMARK INTER + INTRA:          -5.327
REMARK INTER:                  -5.125
REMARK INTRA:                  -0.202
REMARK UNBOUND:                -0.415
REMARK  5 active torsions:
REMARK  status: ('A' for Active; 'I' for Inactive)
REMARK    1  A    between atoms: C2_3  and  C7_10 
REMARK    2  A    between atoms: C7_10  and  C8_11 
REMARK    3  A    between atoms: C8_11  and  C9_12 
REMARK    4  A    between atoms: C9_12  and  C10_13 
REMARK    5  A    between atoms: C10_13  and  C11_14 
ROOT
HETATM    1  N1  BTN A 300      24.112  11.926 -16.185  1.00 17.73    -0.217 NA
HETATM    2  S1  BTN A 300      23.550  13.091 -13.131  1.00 16.59    -0.137 SA
HETATM    3  C2  BTN A 300      21.844  13.000 -13.813  1.00 17.74     0.072 C 
HETATM    4  N2  BTN A 300      22.406  13.289 -16.223  1.00 17.92    -0.217 NA
HETATM    5  C3  BTN A 300      23.618  13.026 -16.762  1.00 17.95     0.360 A 
HETATM    6  O3  BTN A 300      24.128  13.739 -17.653  1.00 17.93    -0.243 OA
HETATM    7  C4  BTN A 300      22.033  12.323 -15.191  1.00 17.65     0.141 A 
HETATM    8  C5  BTN A 300      23.223  11.370 -15.166  1.00 17.47     0.142 A 
HETATM    9  C6  BTN A 300      23.837  11.399 -13.771  1.00 17.06     0.084 C 
ENDROOT
BRANCH   3  10
HETATM   10  C7  BTN A 300      21.015  14.212 -13.950  1.00 18.33     0.013 C 
BRANCH  10  11
HETATM   11  C8  BTN A 300      20.332  14.907 -12.774  1.00 19.24     0.002 C 
BRANCH  11  12
HETATM   12  C9  BTN A 300      18.925  14.525 -12.551  1.00 20.09     0.011 C 
BRANCH  12  13
HETATM   13  C10 BTN A 300      18.038  15.710 -12.033  1.00 20.77     0.098 C 
BRANCH  13  14
HETATM   14  C11 BTN A 300      17.324  16.378 -13.153  1.00 21.57     0.185 C 
HETATM   15  O11 BTN A 300      17.646  16.308 -14.347  1.00 21.65    -0.647 OA
HETATM   16  O12 BTN A 300      16.654  17.453 -12.784  1.00 22.67    -0.647 OA
ENDBRANCH  13  14
ENDBRANCH  12  13
ENDBRANCH  11  12
ENDBRANCH  10  11
ENDBRANCH   3  10
TORSDOF 5
ENDMDL
MODEL 9
REMARK VINA RESULT:    -3.776     11.286     12.380
REMARK INTER + INTRA:          -5.295
REMARK INTER:                  -4.963
REMARK INTRA:                  -0.332
REMARK UNBOUND:                -0.415
REMARK  5 active torsions:
REMARK  status: ('A' for Active; 'I' for Inactive)
REMARK    1  A    between atoms: C2_3  and  C7_10 
REMARK    2  A    between atoms: C7_10  and  C8_11 
REMARK    3  A    between atoms: C8_11  and  C9_12 
REMARK    4  A    between atoms: C9_12  and  C10_13 
REMARK    5  A    between atoms: C10_13  and  C11_14 
ROOT
HETATM    1  N1  BTN A 300       8.994  14.897 -12.971  1.00 17.73    -0.217 NA
HETATM    2  S1  BTN A 300       5.891  15.363 -14.049  1.00 16.59    -0.137 SA
HETATM    3  C2  BTN A 300       5.601  14.719 -12.350  1.00 17.74     0.072 C 
HETATM    4  N2  BTN A 300       7.684  13.372 -12.117  1.00 17.92    -0.217 NA
HETATM    5  C3  BTN A 300       8.813  13.579 -12.832  1.00 17.95     0.360 A 
HETATM    6  O3  BTN A 300       9.523  12.643 -13.258  1.00 17.93    -0.243 OA
HETATM    7  C4  BTN A 300       7.022  14.621 -11.745  1.00 17.65     0.141 A 
HETATM    8  C5  BTN A 300       7.937  15.686 -12.339  1.00 17.47     0.142 A 
HETATM    9  C6  BTN A 300       7.136  16.507 -13.344  1.00 17.06     0.084 C 
ENDROOT
BRANCH   3  10
HETATM   10  C7  BTN A 300       4.866  13.460 -12.130  1.00 18.33     0.013 C 
BRANCH  10  11
HETATM   11  C8  BTN A 300       3.993  13.195 -10.905  1.00 19.24     0.002 C 
BRANCH  11  12
HETATM   12  C9  BTN A 300       4.541  12.219  -9.944  1.00 20.09     0.011 C 
BRANCH  12  13
HETATM   13  C10 BTN A 300       3.922  12.351  -8.509  1.00 20.77     0.098 C 
BRANCH  13  14
HETATM   14  C11 BTN A 300       4.571  13.448  -7.741  1.00 21.57     0.185 C 
HETATM   15  O11 BTN A 300       5.718  13.872  -7.935  1.00 21.65    -0.647 OA
HETATM   16  O12 BTN A 300       4.081  13.601  -6.526  1.00 22.67    -0.647 OA
ENDBRANCH  13  14
ENDBRANCH  12  13
ENDBRANCH  11  12
ENDBRANCH  10  11
ENDBRANCH   3  10
TORSDOF 5
ENDMDL
