MODEL 1
REMARK VINA RESULT:    -6.261      0.000      0.000
REMARK INTER + INTRA:          -8.334
REMARK INTER:                  -8.091
REMARK INTRA:                  -0.243
REMARK UNBOUND:                -0.243
REMARK  5 active torsions:
REMARK  status: ('A' for Active; 'I' for Inactive)
REMARK    1  A    between atoms: C2_3  and  C7_10 
REMARK    2  A    between atoms: C7_10  and  C8_11 
REMARK    3  A    between atoms: C8_11  and  C9_12 
REMARK    4  A    between atoms: C9_12  and  C10_13 
REMARK    5  A    between atoms: C10_13  and  C11_14 
ROOT
HETATM    1  N1  BTN A 300      10.961  -0.957  -7.992  1.00 17.73    -0.217 NA
HETATM    2  S1  BTN A 300       9.427   0.097 -10.737  1.00 16.59    -0.137 SA
HETATM    3  C2  BTN A 300      11.134   0.732 -10.999  1.00 17.74     0.072 C 
HETATM    4  N2  BTN A 300      11.800   0.963  -8.609  1.00 17.92    -0.217 NA
HETATM    5  C3  BTN A 300      11.226   0.290  -7.587  1.00 17.95     0.360 A 
HETATM    6  O3  BTN A 300      11.010   0.813  -6.472  1.00 17.93    -0.243 OA
HETATM    7  C4  BTN A 300      11.933   0.143  -9.812  1.00 17.65     0.141 A 
HETATM    8  C5  BTN A 300      11.349  -1.198  -9.380  1.00 17.47     0.142 A 
HETATM    9  C6  BTN A 300      10.157  -1.518 -10.276  1.00 17.06     0.084 C 
ENDROOT
BRANCH   3  10
HETATM   10  C7  BTN A 300      11.396   2.178 -11.122  1.00 18.33     0.013 C 
BRANCH  10  11
HETATM   11  C8  BTN A 300      10.596   3.108 -12.031  1.00 19.24     0.002 C 
BRANCH  11  12
HETATM   12  C9  BTN A 300      11.334   3.634 -13.196  1.00 20.09     0.011 C 
BRANCH  12  13
HETATM   13  C10 BTN A 300      10.543   4.737 -13.981  1.00 20.77     0.098 C 
BRANCH  13  14
HETATM   14  C11 BTN A 300       9.126   4.337 -14.194  1.00 21.57     0.185 C 
HETATM   15  O11 BTN A 300       8.715   3.643 -15.133  1.00 21.65    -0.647 OA
HETATM   16  O12 BTN A 300       8.257   5.163 -13.644  1.00 22.67    -0.647 OA
ENDBRANCH  13  14
ENDBRANCH  12  13
ENDBRANCH  11  12
ENDBRANCH  10  11
ENDBRANCH   3  10
TORSDOF 5
ENDMDL
MODEL 2
REMARK VINA RESULT:    -5.915      2.001      2.720
REMARK INTER + INTRA:          -7.888
REMARK INTER:                  -7.589
REMARK INTRA:                  -0.298
REMARK UNBOUND:                -0.243
REMARK  5 active torsions:
REMARK  status: ('A' for Active; 'I' for Inactive)
REMARK    1  A    between atoms: C2_3  and  C7_10 
REMARK    2  A    between atoms: C7_10  and  C8_11 
REMARK    3  A    between atoms: C8_11  and  C9_12 
REMARK    4  A    between atoms: C9_12  and  C10_13 
REMARK    5  A    between atoms: C10_13  and  C11_14 
ROOT
HETATM    1  N1  BTN A 300      10.484   0.574  -9.779  1.00 17.73    -0.217 NA
HETATM    2  S1  BTN A 300       9.325   1.268 -12.808  1.00 16.59    -0.137 SA
HETATM    3  C2  BTN A 300      10.565   2.605 -12.570  1.00 17.74     0.072 C 
HETATM    4  N2  BTN A 300      10.477   2.737 -10.083  1.00 17.92    -0.217 NA
HETATM    5  C3  BTN A 300      10.050   1.737  -9.280  1.00 17.95     0.360 A 
HETATM    6  O3  BTN A 300       9.367   1.941  -8.253  1.00 17.93    -0.243 OA
HETATM    7  C4  BTN A 300      11.243   2.245 -11.226  1.00 17.65     0.141 A 
HETATM    8  C5  BTN A 300      11.250   0.735 -11.013  1.00 17.47     0.142 A 
HETATM    9  C6  BTN A 300      10.580   0.074 -12.212  1.00 17.06     0.084 C 
ENDROOT
BRANCH   3  10
HETATM   10  C7  BTN A 300      10.162   4.025 -12.572  1.00 18.33     0.013 C 
BRANCH  10  11
HETATM   11  C8  BTN A 300      10.034   4.864 -13.841  1.00 19.24     0.002 C 
BRANCH  11  12
HETATM   12  C9  BTN A 300       8.880   4.534 -14.699  1.00 20.09     0.011 C 
BRANCH  12  13
HETATM   13  C10 BTN A 300       7.530   4.439 -13.907  1.00 20.77     0.098 C 
BRANCH  13  14
HETATM   14  C11 BTN A 300       6.411   5.050 -14.673  1.00 21.57     0.185 C 
HETATM   15  O11 BTN A 300       6.509   6.041 -15.409  1.00 21.65    -0.647 OA
HETATM   16  O12 BTN A 300       5.224   4.819 -14.146  1.00 22.67    -0.647 OA
ENDBRANCH  13  14
ENDBRANCH  12  13
ENDBRANCH  11  12
ENDBRANCH  10  11
ENDBRANCH   3  10
TORSDOF 5
ENDMDL
MODEL 3
REMARK VINA RESULT:    -5.846      3.575      6.803
REMARK INTER + INTRA:          -7.798
REMARK INTER:                  -7.493
REMARK INTRA:                  -0.305
REMARK UNBOUND:                -0.243
REMARK  5 active torsions:
REMARK  status: ('A' for Active; 'I' for Inactive)
REMARK    1  A    between atoms: C2_3  and  C7_10 
REMARK    2  A    between atoms: C7_10  and  C8_11 
REMARK    3  A    between atoms: C8_11  and  C9_12 
REMARK    4  A    between atoms: C9_12  and  C10_13 
REMARK    5  A    between atoms: C10_13  and  C11_14 
ROOT
HETATM    1  N1  BTN A 300       7.287   5.188 -14.523  1.00 17.73    -0.217 NA
HETATM    2  S1  BTN A 300       9.817   4.124 -12.660  1.00 16.59    -0.137 SA
HETATM    3  C2  BTN A 300       9.396   2.609 -13.615  1.00 17.74     0.072 C 
HETATM    4  N2  BTN A 300       6.982   3.089 -14.003  1.00 17.92    -0.217 NA
HETATM    5  C3  BTN A 300       6.433   4.323 -13.965  1.00 17.95     0.360 A 
HETATM    6  O3  BTN A 300       5.304   4.545 -13.476  1.00 17.93    -0.243 OA
HETATM    7  C4  BTN A 300       8.312   3.088 -14.609  1.00 17.65     0.141 A 
HETATM    8  C5  BTN A 300       8.524   4.554 -14.975  1.00 17.47     0.142 A 
HETATM    9  C6  BTN A 300       9.753   5.064 -14.230  1.00 17.06     0.084 C 
ENDROOT
BRANCH   3  10
HETATM   10  C7  BTN A 300       8.953   1.379 -12.932  1.00 18.33     0.013 C 
BRANCH  10  11
HETATM   11  C8  BTN A 300       9.911   0.324 -12.383  1.00 19.24     0.002 C 
BRANCH  11  12
HETATM   12  C9  BTN A 300      10.592   0.689 -11.126  1.00 20.09     0.011 C 
BRANCH  12  13
HETATM   13  C10 BTN A 300       9.687   0.507  -9.859  1.00 20.77     0.098 C 
BRANCH  13  14
HETATM   14  C11 BTN A 300      10.027   1.501  -8.806  1.00 21.57     0.185 C 
HETATM   15  O11 BTN A 300      10.398   2.664  -9.016  1.00 21.65    -0.647 OA
HETATM   16  O12 BTN A 300      10.415   0.953  -7.670  1.00 22.67    -0.647 OA
ENDBRANCH  13  14
ENDBRANCH  12  13
ENDBRANCH  11  12
ENDBRANCH  10  11
ENDBRANCH   3  10
TORSDOF 5
ENDMDL
MODEL 4
REMARK VINA RESULT:    -5.827      2.890      6.387
REMARK INTER + INTRA:          -7.774
REMARK INTER:                  -7.366
REMARK INTRA:                  -0.408
REMARK UNBOUND:                -0.243
REMARK  5 active torsions:
REMARK  status: ('A' for Active; 'I' for Inactive)
REMARK    1  A    between atoms: C2_3  and  C7_10 
REMARK    2  A    between atoms: C7_10  and  C8_11 
REMARK    3  A    between atoms: C8_11  and  C9_12 
REMARK    4  A    between atoms: C9_12  and  C10_13 
REMARK    5  A    between atoms: C10_13  and  C11_14 
ROOT
HETATM    1  N1  BTN A 300       9.508   3.313 -14.015  1.00 17.73    -0.217 NA
HETATM    2  S1  BTN A 300      10.618   2.754 -10.940  1.00 16.59    -0.137 SA
HETATM    3  C2  BTN A 300      10.605   1.055 -11.644  1.00 17.74     0.072 C 
HETATM    4  N2  BTN A 300       8.785   1.374 -13.316  1.00 17.92    -0.217 NA
HETATM    5  C3  BTN A 300       8.412   2.572 -13.820  1.00 17.95     0.360 A 
HETATM    6  O3  BTN A 300       7.218   2.867 -14.044  1.00 17.93    -0.243 OA
HETATM    7  C4  BTN A 300      10.231   1.273 -13.129  1.00 17.65     0.141 A 
HETATM    8  C5  BTN A 300      10.737   2.626 -13.620  1.00 17.47     0.142 A 
HETATM    9  C6  BTN A 300      11.454   3.321 -12.468  1.00 17.06     0.084 C 
ENDROOT
BRANCH   3  10
HETATM   10  C7  BTN A 300       9.762  -0.004 -11.057  1.00 18.33     0.013 C 
BRANCH  10  11
HETATM   11  C8  BTN A 300       9.730  -0.330  -9.566  1.00 19.24     0.002 C 
BRANCH  11  12
HETATM   12  C9  BTN A 300      10.938  -0.997  -9.043  1.00 20.09     0.011 C 
BRANCH  12  13
HETATM   13  C10 BTN A 300      11.829  -0.057  -8.160  1.00 20.77     0.098 C 
BRANCH  13  14
HETATM   14  C11 BTN A 300      13.229  -0.013  -8.661  1.00 21.57     0.185 C 
HETATM   15  O11 BTN A 300      14.184  -0.623  -8.161  1.00 21.65    -0.647 OA
HETATM   16  O12 BTN A 300      13.514   1.087  -9.330  1.00 22.67    -0.647 OA
ENDBRANCH  13  14
ENDBRANCH  12  13
ENDBRANCH  11  12
ENDBRANCH  10  11
ENDBRANCH   3  10
TORSDOF 5
ENDMDL
MODEL 5
REMARK VINA RESULT:    -5.640      4.375      7.378
REMARK INTER + INTRA:          -7.532
REMARK INTER:                  -7.271
REMARK INTRA:                  -0.262
REMARK UNBOUND:                -0.243
REMARK  5 active torsions:
REMARK  status: ('A' for Active; 'I' for Inactive)
REMARK    1  A    between atoms: C2_3  and  C7_10 
REMARK    2  A    between atoms: C7_10  and  C8_11 
REMARK    3  A    between atoms: C8_11  and  C9_12 
REMARK    4  A    between atoms: C9_12  and  C10_13 
REMARK    5  A    between atoms: C10_13  and  C11_14 
ROOT
HETATM    1  N1  BTN A 300       5.193   4.912 -15.190  1.00 17.73    -0.217 NA
HETATM    2  S1  BTN A 300       6.987   2.130 -14.977  1.00 16.59    -0.137 SA
HETATM    3  C2  BTN A 300       7.992   3.298 -13.971  1.00 17.74     0.072 C 
HETATM    4  N2  BTN A 300       7.317   5.415 -15.099  1.00 17.92    -0.217 NA
HETATM    5  C3  BTN A 300       6.178   5.573 -15.810  1.00 17.95     0.360 A 
HETATM    6  O3  BTN A 300       6.128   6.243 -16.864  1.00 17.93    -0.243 OA
HETATM    7  C4  BTN A 300       7.125   4.578 -13.916  1.00 17.65     0.141 A 
HETATM    8  C5  BTN A 300       5.642   4.229 -13.978  1.00 17.47     0.142 A 
HETATM    9  C6  BTN A 300       5.505   2.714 -14.073  1.00 17.06     0.084 C 
ENDROOT
BRANCH   3  10
HETATM   10  C7  BTN A 300       9.375   3.636 -14.356  1.00 18.33     0.013 C 
BRANCH  10  11
HETATM   11  C8  BTN A 300      10.392   4.252 -13.397  1.00 19.24     0.002 C 
BRANCH  11  12
HETATM   12  C9  BTN A 300      10.368   3.712 -12.025  1.00 20.09     0.011 C 
BRANCH  12  13
HETATM   13  C10 BTN A 300      11.291   2.457 -11.839  1.00 20.77     0.098 C 
BRANCH  13  14
HETATM   14  C11 BTN A 300      11.295   1.996 -10.425  1.00 21.57     0.185 C 
HETATM   15  O11 BTN A 300      10.526   2.398  -9.541  1.00 21.65    -0.647 OA
HETATM   16  O12 BTN A 300      12.464   1.534 -10.025  1.00 22.67    -0.647 OA
ENDBRANCH  13  14
ENDBRANCH  12  13
ENDBRANCH  11  12
ENDBRANCH  10  11
ENDBRANCH   3  10
TORSDOF 5
ENDMDL
MODEL 6
REMARK VINA RESULT:    -4.685      2.871      3.911
REMARK INTER + INTRA:          -6.298
REMARK INTER:                  -6.127
REMARK INTRA:                  -0.171
REMARK UNBOUND:                -0.243
REMARK  5 active torsions:
REMARK  status: ('A' for Active; 'I' for Inactive)
REMARK    1  A    between atoms: C2_3  and  C7_10 
REMARK    2  A    between atoms: C7_10  and  C8_11 
REMARK    3  A    between atoms: C8_11  and  C9_12 
REMARK    4  A    between atoms: C9_12  and  C10_13 
REMARK    5  A    between atoms: C10_13  and  C11_14 
ROOT
HETATM    1  N1  BTN A 300      10.802   1.094 -10.741  1.00 17.73    -0.217 NA
HETATM    2  S1  BTN A 300       8.410   1.268 -13.033  1.00 16.59    -0.137 SA
HETATM    3  C2  BTN A 300       9.483   2.685 -13.508  1.00 17.74     0.072 C 
HETATM    4  N2  BTN A 300      10.434   3.184 -11.259  1.00 17.92    -0.217 NA
HETATM    5  C3  BTN A 300      10.495   2.296 -10.242  1.00 17.95     0.360 A 
HETATM    6  O3  BTN A 300      10.289   2.619  -9.052  1.00 17.93    -0.243 OA
HETATM    7  C4  BTN A 300      10.697   2.564 -12.557  1.00 17.65     0.141 A 
HETATM    8  C5  BTN A 300      10.957   1.105 -12.195  1.00 17.47     0.142 A 
HETATM    9  C6  BTN A 300       9.920   0.240 -12.904  1.00 17.06     0.084 C 
ENDROOT
BRANCH   3  10
HETATM   10  C7  BTN A 300       8.966   4.067 -13.500  1.00 18.33     0.013 C 
BRANCH  10  11
HETATM   11  C8  BTN A 300       7.552   4.442 -13.938  1.00 19.24     0.002 C 
BRANCH  11  12
HETATM   12  C9  BTN A 300       7.423   4.865 -15.346  1.00 20.09     0.011 C 
BRANCH  12  13
HETATM   13  C10 BTN A 300       6.235   5.860 -15.585  1.00 20.77     0.098 C 
BRANCH  13  14
HETATM   14  C11 BTN A 300       5.743   5.785 -16.987  1.00 21.57     0.185 C 
HETATM   15  O11 BTN A 300       4.919   4.962 -17.409  1.00 21.65    -0.647 OA
HETATM   16  O12 BTN A 300       6.587   6.283 -17.869  1.00 22.67    -0.647 OA
ENDBRANCH  13  14
ENDBRANCH  12  13
ENDBRANCH  11  12
ENDBRANCH  10  11
ENDBRANCH   3  10
TORSDOF 5
ENDMDL
MODEL 7
REMARK VINA RESULT:    -4.537      2.611      3.812
REMARK INTER + INTRA:          -6.106
REMARK INTER:                  -5.642
REMARK INTRA:                  -0.464
REMARK UNBOUND:                -0.243
REMARK  5 active torsions:
REMARK  status: ('A' for Active; 'I' for Inactive)
REMARK    1  A    between atoms: C2_3  and  C7_10 
REMARK    2  A    between atoms: C7_10  and  C8_11 
REMARK    3  A    between atoms: C8_11  and  C9_12 
REMARK    4  A    between atoms: C9_12  and  C10_13 
REMARK    5  A    between atoms: C10_13  and  C11_14 
ROOT
HETATM    1  N1  BTN A 300      10.898   2.487 -10.562  1.00 17.73    -0.217 NA
HETATM    2  S1  BTN A 300       8.775  -0.056 -10.383  1.00 16.59    -0.137 SA
HETATM    3  C2  BTN A 300       9.571  -0.351 -12.015  1.00 17.74     0.072 C 
HETATM    4  N2  BTN A 300      10.157   2.008 -12.560  1.00 17.92    -0.217 NA
HETATM    5  C3  BTN A 300      10.296   2.993 -11.644  1.00 17.95     0.360 A 
HETATM    6  O3  BTN A 300       9.904   4.162 -11.846  1.00 17.93    -0.243 OA
HETATM    7  C4  BTN A 300      10.678   0.727 -12.087  1.00 17.65     0.141 A 
HETATM    8  C5  BTN A 300      11.197   1.062 -10.692  1.00 17.47     0.142 A 
HETATM    9  C6  BTN A 300      10.445   0.208  -9.678  1.00 17.06     0.084 C 
ENDROOT
BRANCH   3  10
HETATM   10  C7  BTN A 300       8.778  -0.351 -13.259  1.00 18.33     0.013 C 
BRANCH  10  11
HETATM   11  C8  BTN A 300       7.331   0.129 -13.338  1.00 19.24     0.002 C 
BRANCH  11  12
HETATM   12  C9  BTN A 300       6.987   0.886 -14.558  1.00 20.09     0.011 C 
BRANCH  12  13
HETATM   13  C10 BTN A 300       6.344   2.284 -14.256  1.00 20.77     0.098 C 
BRANCH  13  14
HETATM   14  C11 BTN A 300       7.369   3.362 -14.261  1.00 21.57     0.185 C 
HETATM   15  O11 BTN A 300       7.208   4.501 -13.803  1.00 21.65    -0.647 OA
HETATM   16  O12 BTN A 300       8.265   3.231 -15.220  1.00 22.67    -0.647 OA
ENDBRANCH  13  14
ENDBRANCH  12  13
ENDBRANCH  11  12
ENDBRANCH  10  11
ENDBRANCH   3  10
TORSDOF 5
ENDMDL
MODEL 8
REMARK VINA RESULT:    -4.427     15.390     17.109
REMARK INTER + INTRA:          -5.965
REMARK INTER:                  -5.698
REMARK INTRA:                  -0.267
REMARK UNBOUND:                -0.243
REMARK  5 active torsions:
REMARK  status: ('A' for Active; 'I' for Inactive)
REMARK    1  A    between atoms: C2_3  and  C7_10 
REMARK    2  A    between atoms: C7_10  and  C8_11 
REMARK    3  A    between atoms: C8_11  and  C9_12 
REMARK    4  A    between atoms: C9_12  and  C10_13 
REMARK    5  A    between atoms: C10_13  and  C11_14 
ROOT
HETATM    1  N1  BTN A 300      18.895  14.977 -13.008  1.00 17.73    -0.217 NA
HETATM    2  S1  BTN A 300      21.998  15.637 -12.040  1.00 16.59    -0.137 SA
HETATM    3  C2  BTN A 300      22.187  13.962 -12.776  1.00 17.74     0.072 C 
HETATM    4  N2  BTN A 300      19.873  13.130 -12.374  1.00 17.92    -0.217 NA
HETATM    5  C3  BTN A 300      18.797  13.926 -12.186  1.00 17.95     0.360 A 
HETATM    6  O3  BTN A 300      17.896  13.658 -11.363  1.00 17.93    -0.243 OA
HETATM    7  C4  BTN A 300      20.793  13.663 -13.377  1.00 17.65     0.141 A 
HETATM    8  C5  BTN A 300      20.109  14.951 -13.822  1.00 17.47     0.142 A 
HETATM    9  C6  BTN A 300      21.041  16.121 -13.524  1.00 17.06     0.084 C 
ENDROOT
BRANCH   3  10
HETATM   10  C7  BTN A 300      22.646  12.821 -11.962  1.00 18.33     0.013 C 
BRANCH  10  11
HETATM   11  C8  BTN A 300      23.288  11.566 -12.551  1.00 19.24     0.002 C 
BRANCH  11  12
HETATM   12  C9  BTN A 300      24.083  11.784 -13.775  1.00 20.09     0.011 C 
BRANCH  12  13
HETATM   13  C10 BTN A 300      24.029  10.573 -14.769  1.00 20.77     0.098 C 
BRANCH  13  14
HETATM   14  C11 BTN A 300      24.666  10.914 -16.069  1.00 21.57     0.185 C 
HETATM   15  O11 BTN A 300      24.579  12.010 -16.640  1.00 21.65    -0.647 OA
HETATM   16  O12 BTN A 300      24.894   9.865 -16.835  1.00 22.67    -0.647 OA
ENDBRANCH  13  14
ENDBRANCH  12  13
ENDBRANCH  11  12
ENDBRANCH  10  11
ENDBRANCH   3  10
TORSDOF 5
ENDMDL
MODEL 9
REMARK VINA RESULT:    -4.331     13.055     14.708
REMARK INTER + INTRA:          -5.840
REMARK INTER:                  -5.627
REMARK INTRA:                  -0.212
REMARK UNBOUND:                -0.243
REMARK  5 active torsions:
REMARK  status: ('A' for Active; 'I' for Inactive)
REMARK    1  A    between atoms: C2_3  and  C7_10 
REMARK    2  A    between atoms: C7_10  and  C8_11 
REMARK    3  A    between atoms: C8_11  and  C9_12 
REMARK    4  A    between atoms: C9_12  and  C10_13 
REMARK    5  A    between atoms: C10_13  and  C11_14 
ROOT
HETATM    1  N1  BTN A 300      16.602  15.637  -9.908  1.00 17.73    -0.217 NA
HETATM    2  S1  BTN A 300      15.097  17.266 -12.374  1.00 16.59    -0.137 SA
HETATM    3  C2  BTN A 300      13.697  16.963 -11.220  1.00 17.74     0.072 C 
HETATM    4  N2  BTN A 300      14.563  14.891 -10.141  1.00 17.92    -0.217 NA
HETATM    5  C3  BTN A 300      15.867  14.537 -10.103  1.00 17.95     0.360 A 
HETATM    6  O3  BTN A 300      16.248  13.354 -10.233  1.00 17.93    -0.243 OA
HETATM    7  C4  BTN A 300      14.371  16.331  -9.979  1.00 17.65     0.141 A 
HETATM    8  C5  BTN A 300      15.795  16.852  -9.814  1.00 17.47     0.142 A 
HETATM    9  C6  BTN A 300      16.082  17.838 -10.941  1.00 17.06     0.084 C 
ENDROOT
BRANCH   3  10
HETATM   10  C7  BTN A 300      12.532  16.158 -11.632  1.00 18.33     0.013 C 
BRANCH  10  11
HETATM   11  C8  BTN A 300      11.185  16.760 -12.027  1.00 19.24     0.002 C 
BRANCH  11  12
HETATM   12  C9  BTN A 300      10.019  15.881 -11.815  1.00 20.09     0.011 C 
BRANCH  12  13
HETATM   13  C10 BTN A 300       9.585  15.107 -13.108  1.00 20.77     0.098 C 
BRANCH  13  14
HETATM   14  C11 BTN A 300       9.322  13.673 -12.816  1.00 21.57     0.185 C 
HETATM   15  O11 BTN A 300      10.026  12.727 -13.193  1.00 21.65    -0.647 OA
HETATM   16  O12 BTN A 300       8.051  13.407 -12.585  1.00 22.67    -0.647 OA
ENDBRANCH  13  14
ENDBRANCH  12  13
ENDBRANCH  11  12
ENDBRANCH  10  11
ENDBRANCH   3  10
TORSDOF 5
ENDMDL
