REMARK  9 active torsions:
REMARK  status: ('A' for Active; 'I' for Inactive)
REMARK    1  A    between atoms: O6_12  and  C10_19 
REMARK    2  A    between atoms: O7_14  and  C16_29 
REMARK    3  A    between atoms: O9_18  and  C27_40 
REMARK    4  A    between atoms: O10_20  and  C28_41 
REMARK    5  A    between atoms: O12_24  and  C39_52 
REMARK    6  A    between atoms: O13_26  and  C40_53 
REMARK    7  A    between atoms: C34_47  and  C35_48 
REMARK    8  A    between atoms: C35_48  and  C36_49 
REMARK    9  A    between atoms: C36_49  and  C37_50 
ROOT
HETATM    1  C1  RAP A 108     -62.616   9.477  25.894  1.00  5.98     0.292 C 
HETATM    2  O1  RAP A 108     -63.090  10.269  26.975  1.00  9.08    -0.302 OA
HETATM    3  C2  RAP A 108     -61.819   8.192  26.117  1.00  6.42     0.171 C 
HETATM    4  O2  RAP A 108     -62.837   9.868  24.750  1.00 14.08    -0.262 OA
HETATM    5  C3  RAP A 108     -62.298   7.082  25.193  1.00  5.50     0.033 C 
HETATM    6  O3  RAP A 108     -59.769   8.402  27.829  1.00 10.38    -0.264 OA
HETATM    7  C4  RAP A 108     -63.625   6.467  25.614  1.00  4.49     0.004 C 
HETATM    8  O4  RAP A 108     -60.357   6.220  29.839  1.00 10.60    -0.281 OA
HETATM    9  C5  RAP A 108     -63.492   5.993  27.050  1.00  4.19     0.024 C 
HETATM   10  O5  RAP A 108     -62.545   8.288  30.807  1.00 10.76    -0.332 OA
HETATM   11  C6  RAP A 108     -63.118   7.127  27.954  1.00  3.25     0.105 C 
HETATM   12  N7  RAP A 108     -61.831   7.668  27.487  1.00  8.46    -0.307 N 
HETATM   13  C8  RAP A 108     -60.776   7.853  28.295  1.00 10.06     0.297 C 
HETATM   14  O8  RAP A 108     -71.196  14.724  24.682  1.00 18.31    -0.293 OA
HETATM   15  C9  RAP A 108     -60.734   7.379  29.625  1.00 11.13     0.279 C 
HETATM   16  C10 RAP A 108     -61.137   8.255  30.825  1.00 16.59     0.246 C 
HETATM   17  C11 RAP A 108     -60.581   9.735  30.738  1.00 10.40     0.059 C 
HETATM   18  O11 RAP A 108     -65.917   9.416  26.711  1.00  9.49    -0.296 OA
HETATM   19  C12 RAP A 108     -61.260  10.651  31.782  1.00 12.17     0.008 C 
HETATM   20  C13 RAP A 108     -62.773  10.493  31.725  1.00 12.80     0.030 C 
HETATM   21  C14 RAP A 108     -63.234   9.039  31.742  1.00 10.37     0.121 C 
HETATM   22  C15 RAP A 108     -64.688   8.958  31.312  1.00  5.94     0.064 C 
HETATM   23  C16 RAP A 108     -65.721   9.515  32.284  1.00  9.79     0.136 C 
HETATM   24  C17 RAP A 108     -67.122   9.407  31.721  1.00 15.52    -0.017 C 
HETATM   25  C18 RAP A 108     -67.774  10.525  31.430  1.00 14.38    -0.006 C 
HETATM   26  C19 RAP A 108     -69.124  10.582  30.852  1.00  9.73    -0.001 C 
HETATM   27  C20 RAP A 108     -69.691  11.764  30.654  1.00 10.26    -0.000 C 
HETATM   28  C21 RAP A 108     -71.000  11.882  29.986  1.00 11.40    -0.005 C 
HETATM   29  C22 RAP A 108     -71.481  13.049  29.600  1.00 17.77    -0.026 C 
HETATM   30  C23 RAP A 108     -72.763  13.221  28.815  1.00 15.64     0.022 C 
HETATM   31  C24 RAP A 108     -72.401  13.983  27.552  1.00 14.68     0.012 C 
HETATM   32  C25 RAP A 108     -71.270  13.428  26.706  1.00 11.87     0.061 C 
HETATM   33  C26 RAP A 108     -70.705  14.502  25.786  1.00 11.65     0.180 C 
HETATM   34  C27 RAP A 108     -69.495  15.276  26.299  1.00  8.13     0.203 C 
HETATM   35  C28 RAP A 108     -68.136  14.547  26.048  1.00 10.80     0.163 C 
HETATM   36  C29 RAP A 108     -67.815  13.463  27.095  1.00  9.60    -0.019 C 
HETATM   37  C30 RAP A 108     -67.821  12.160  26.816  1.00  8.55    -0.025 C 
HETATM   38  C31 RAP A 108     -67.487  10.963  27.718  1.00  8.43     0.079 C 
HETATM   39  C32 RAP A 108     -66.091  10.440  27.379  1.00 10.69     0.157 C 
HETATM   40  C33 RAP A 108     -64.928  11.294  27.871  1.00  6.51     0.095 C 
HETATM   41  C34 RAP A 108     -63.833  11.429  26.833  1.00  9.62     0.132 C 
HETATM   42  C43 RAP A 108     -59.031   9.868  30.817  1.00 11.25     0.005 C 
HETATM   43  C44 RAP A 108     -67.673   7.978  31.568  1.00 14.40     0.029 C 
HETATM   44  C45 RAP A 108     -73.802  13.983  29.625  1.00  9.23     0.005 C 
HETATM   45  C46 RAP A 108     -71.713  12.201  25.905  1.00 15.99     0.008 C 
HETATM   46  C47 RAP A 108     -67.506  14.004  28.478  1.00 14.60     0.029 C 
HETATM   47  C48 RAP A 108     -68.527   9.857  27.480  1.00  9.37     0.013 C 
ENDROOT
BRANCH  41  48
HETATM   48  C35 RAP A 108     -62.829  12.591  26.970  1.00  9.58     0.028 C 
HETATM   49  C49 RAP A 108     -62.257  12.688  28.355  1.00  8.29     0.003 C 
BRANCH  48  50
HETATM   50  C36 RAP A 108     -63.435  13.928  26.547  1.00 10.31     0.003 C 
BRANCH  50  51
HETATM   51  C37 RAP A 108     -63.840  14.082  25.079  1.00 22.90     0.003 C 
HETATM   52  C38 RAP A 108     -64.481  15.456  24.852  1.00 14.17     0.032 C 
HETATM   53  C39 RAP A 108     -65.018  15.637  23.431  1.00 34.20     0.142 C 
HETATM   54  C40 RAP A 108     -63.892  15.318  22.388  1.00 38.24     0.138 C 
HETATM   55  C41 RAP A 108     -63.213  13.954  22.625  1.00 16.32     0.032 C 
HETATM   56  C42 RAP A 108     -62.727  13.831  24.062  1.00 14.05     0.003 C 
BRANCH  53  57
HETATM   57  O12 RAP A 108     -65.419  16.979  23.324  1.00 30.82    -0.352 OA
HETATM   58  C52 RAP A 108     -66.774  17.238  23.459  1.00 28.14     0.174 C 
ENDBRANCH  53  57
BRANCH  54  59
HETATM   59  O13 RAP A 108     -64.451  15.339  21.076  1.00 28.84    -0.382 OA
HETATM   60  HO3 RAP A 108     -65.396  15.146  21.122  1.00 13.32     0.210 HD
ENDBRANCH  54  59
ENDBRANCH  50  51
ENDBRANCH  48  50
ENDBRANCH  41  48
BRANCH  35  61
HETATM   61  O10 RAP A 108     -68.196  13.959  24.742  1.00 12.16    -0.378 OA
HETATM   62  HO1 RAP A 108     -67.368  13.510  24.516  1.00 13.32     0.211 HD
ENDBRANCH  35  61
BRANCH  16  63
HETATM   63  O6  RAP A 108     -60.649   7.646  32.024  1.00 14.16    -0.358 OA
HETATM   64  HO6 RAP A 108     -60.203   6.829  31.783  1.00 13.32     0.213 HD
ENDBRANCH  16  63
BRANCH  34  65
HETATM   65  O9  RAP A 108     -69.426  16.502  25.621  1.00 23.09    -0.344 OA
HETATM   66  C51 RAP A 108     -70.137  17.543  26.194  1.00 19.04     0.175 C 
ENDBRANCH  34  65
BRANCH  23  67
HETATM   67  O7  RAP A 108     -65.637   8.777  33.463  1.00 20.17    -0.350 OA
HETATM   68  C50 RAP A 108     -66.090   9.408  34.618  1.00 28.36     0.175 C 
ENDBRANCH  23  67
TORSDOF 9
