MODEL 1
REMARK VINA RESULT:    -6.649      0.000      0.000
REMARK INTER + INTRA:         -11.665
REMARK INTER:                  -9.564
REMARK INTRA:                  -2.101
REMARK UNBOUND:                -2.101
REMARK  9 active torsions:
REMARK  status: ('A' for Active; 'I' for Inactive)
REMARK    1  A    between atoms: O6_12  and  C10_19 
REMARK    2  A    between atoms: O7_14  and  C16_29 
REMARK    3  A    between atoms: O9_18  and  C27_40 
REMARK    4  A    between atoms: O10_20  and  C28_41 
REMARK    5  A    between atoms: O12_24  and  C39_52 
REMARK    6  A    between atoms: O13_26  and  C40_53 
REMARK    7  A    between atoms: C34_47  and  C35_48 
REMARK    8  A    between atoms: C35_48  and  C36_49 
REMARK    9  A    between atoms: C36_49  and  C37_50 
ROOT
HETATM    1  C1  RAP A 108       5.965  -0.729  -6.196  1.00  5.98     0.292 C 
HETATM    2  O1  RAP A 108       5.819  -0.348  -7.558  1.00  9.08    -0.302 OA
HETATM    3  C2  RAP A 108       7.313  -0.672  -5.477  1.00  6.42     0.171 C 
HETATM    4  O2  RAP A 108       4.973  -1.143  -5.602  1.00 14.08    -0.262 OA
HETATM    5  C3  RAP A 108       7.166  -0.080  -4.083  1.00  5.50     0.033 C 
HETATM    6  O3  RAP A 108       9.354  -1.815  -6.783  1.00 10.38    -0.264 OA
HETATM    7  C4  RAP A 108       6.971   1.430  -4.078  1.00  4.49     0.004 C 
HETATM    8  O4  RAP A 108      11.393   0.416  -6.909  1.00 10.60    -0.281 OA
HETATM    9  C5  RAP A 108       8.122   2.057  -4.844  1.00  4.19     0.024 C 
HETATM   10  O5  RAP A 108       9.421   1.519  -9.122  1.00 10.76    -0.332 OA
HETATM   11  C6  RAP A 108       8.181   1.531  -6.245  1.00  3.25     0.105 C 
HETATM   12  N7  RAP A 108       8.370   0.073  -6.169  1.00  8.46    -0.307 N 
HETATM   13  C8  RAP A 108       9.335  -0.578  -6.836  1.00 10.06     0.297 C 
HETATM   14  O8  RAP A 108      -2.864   3.207  -9.225  1.00 18.31    -0.293 OA
HETATM   15  C9  RAP A 108      10.373   0.085  -7.527  1.00 11.13     0.279 C 
HETATM   16  C10 RAP A 108      10.286   0.411  -9.030  1.00 16.59     0.246 C 
HETATM   17  C11 RAP A 108       9.703  -0.778  -9.898  1.00 10.40     0.059 C 
HETATM   18  O11 RAP A 108       4.494   2.238  -6.971  1.00  9.49    -0.296 OA
HETATM   19  C12 RAP A 108       9.342  -0.305 -11.325  1.00 12.17     0.008 C 
HETATM   20  C13 RAP A 108       8.505   0.965 -11.269  1.00 12.80     0.030 C 
HETATM   21  C14 RAP A 108       9.091   2.041 -10.360  1.00 10.37     0.121 C 
HETATM   22  C15 RAP A 108       8.038   3.095 -10.069  1.00  5.94     0.064 C 
HETATM   23  C16 RAP A 108       7.637   3.999 -11.229  1.00  9.79     0.136 C 
HETATM   24  C17 RAP A 108       6.557   4.977 -10.817  1.00 15.52    -0.017 C 
HETATM   25  C18 RAP A 108       5.356   4.860 -11.367  1.00 14.38    -0.006 C 
HETATM   26  C19 RAP A 108       4.201   5.713 -11.049  1.00  9.73    -0.001 C 
HETATM   27  C20 RAP A 108       3.065   5.529 -11.707  1.00 10.26    -0.000 C 
HETATM   28  C21 RAP A 108       1.849   6.288 -11.358  1.00 11.40    -0.005 C 
HETATM   29  C22 RAP A 108       0.668   5.976 -11.858  1.00 17.77    -0.026 C 
HETATM   30  C23 RAP A 108      -0.628   6.646 -11.455  1.00 15.64     0.022 C 
HETATM   31  C24 RAP A 108      -1.557   5.543 -10.979  1.00 14.68     0.012 C 
HETATM   32  C25 RAP A 108      -1.030   4.604  -9.910  1.00 11.87     0.061 C 
HETATM   33  C26 RAP A 108      -1.831   3.309  -9.884  1.00 11.65     0.180 C 
HETATM   34  C27 RAP A 108      -1.282   2.147 -10.704  1.00  8.13     0.203 C 
HETATM   35  C28 RAP A 108      -0.188   1.318  -9.957  1.00 10.80     0.163 C 
HETATM   36  C29 RAP A 108       1.215   1.951 -10.019  1.00  9.60    -0.019 C 
HETATM   37  C30 RAP A 108       1.819   2.484  -8.957  1.00  8.55    -0.025 C 
HETATM   38  C31 RAP A 108       3.216   3.110  -8.836  1.00  8.43     0.079 C 
HETATM   39  C32 RAP A 108       4.162   2.121  -8.154  1.00 10.69     0.157 C 
HETATM   40  C33 RAP A 108       4.625   0.951  -9.014  1.00  6.51     0.095 C 
HETATM   41  C34 RAP A 108       4.622  -0.360  -8.253  1.00  9.62     0.132 C 
HETATM   42  C43 RAP A 108      10.588  -2.058  -9.951  1.00 11.25     0.005 C 
HETATM   43  C44 RAP A 108       6.981   6.053  -9.801  1.00 14.40     0.029 C 
HETATM   44  C45 RAP A 108      -1.241   7.399 -12.627  1.00  9.23     0.005 C 
HETATM   45  C46 RAP A 108      -1.019   5.267  -8.530  1.00 15.99     0.008 C 
HETATM   46  C47 RAP A 108       1.848   1.931 -11.398  1.00 14.60     0.029 C 
HETATM   47  C48 RAP A 108       3.113   4.393  -7.996  1.00  9.37     0.013 C 
ENDROOT
BRANCH  41  48
HETATM   48  C35 RAP A 108       4.614  -1.676  -9.056  1.00  9.58     0.028 C 
HETATM   49  C49 RAP A 108       5.983  -2.051  -9.546  1.00  8.29     0.003 C 
BRANCH  48  50
HETATM   50  C36 RAP A 108       3.623  -1.636 -10.218  1.00 10.31     0.003 C 
BRANCH  50  51
HETATM   51  C37 RAP A 108       2.435  -2.600 -10.160  1.00 22.90     0.003 C 
HETATM   52  C38 RAP A 108       1.454  -2.294 -11.298  1.00 14.17     0.032 C 
HETATM   53  C39 RAP A 108       0.183  -3.142 -11.235  1.00 34.20     0.142 C 
HETATM   54  C40 RAP A 108       0.557  -4.663 -11.156  1.00 38.24     0.138 C 
HETATM   55  C41 RAP A 108       1.571  -4.981 -10.038  1.00 16.32     0.032 C 
HETATM   56  C42 RAP A 108       2.797  -4.085 -10.145  1.00 14.05     0.003 C 
BRANCH  53  57
HETATM   57  O12 RAP A 108      -0.534  -2.875 -12.413  1.00 30.82    -0.352 OA
HETATM   58  C52 RAP A 108       0.122  -3.115 -13.611  1.00 28.14     0.174 C 
ENDBRANCH  53  57
BRANCH  54  59
HETATM   59  O13 RAP A 108      -0.629  -5.425 -10.940  1.00 28.84    -0.382 OA
HETATM   60  HO3 RAP A 108      -1.396  -4.838 -10.935  1.00 13.32     0.210 HD
ENDBRANCH  54  59
ENDBRANCH  50  51
ENDBRANCH  48  50
ENDBRANCH  41  48
BRANCH  35  61
HETATM   61  O10 RAP A 108      -0.603   1.188  -8.591  1.00 12.16    -0.378 OA
HETATM   62  HO1 RAP A 108      -1.537   0.941  -8.525  1.00 13.32     0.211 HD
ENDBRANCH  35  61
BRANCH  16  63
HETATM   63  O6  RAP A 108      11.595   0.735  -9.507  1.00 14.16    -0.358 OA
HETATM   64  HO6 RAP A 108      11.881   0.030 -10.095  1.00 13.32     0.213 HD
ENDBRANCH  16  63
BRANCH  34  65
HETATM   65  O9  RAP A 108      -2.333   1.263 -10.989  1.00 23.09    -0.344 OA
HETATM   66  C51 RAP A 108      -2.036   0.252 -11.889  1.00 19.04     0.175 C 
ENDBRANCH  34  65
BRANCH  23  67
HETATM   67  O7  RAP A 108       8.771   4.703 -11.631  1.00 20.17    -0.350 OA
HETATM   68  C50 RAP A 108       8.992   4.782 -13.003  1.00 28.36     0.175 C 
ENDBRANCH  23  67
TORSDOF 9
ENDMDL
MODEL 2
REMARK VINA RESULT:    -6.353      2.899      8.295
REMARK INTER + INTRA:         -11.240
REMARK INTER:                  -8.702
REMARK INTRA:                  -2.538
REMARK UNBOUND:                -2.101
REMARK  9 active torsions:
REMARK  status: ('A' for Active; 'I' for Inactive)
REMARK    1  A    between atoms: O6_12  and  C10_19 
REMARK    2  A    between atoms: O7_14  and  C16_29 
REMARK    3  A    between atoms: O9_18  and  C27_40 
REMARK    4  A    between atoms: O10_20  and  C28_41 
REMARK    5  A    between atoms: O12_24  and  C39_52 
REMARK    6  A    between atoms: O13_26  and  C40_53 
REMARK    7  A    between atoms: C34_47  and  C35_48 
REMARK    8  A    between atoms: C35_48  and  C36_49 
REMARK    9  A    between atoms: C36_49  and  C37_50 
ROOT
HETATM    1  C1  RAP A 108       7.849   1.970 -12.384  1.00  5.98     0.292 C 
HETATM    2  O1  RAP A 108       6.823   1.811 -11.413  1.00  9.08    -0.302 OA
HETATM    3  C2  RAP A 108       8.727   3.220 -12.440  1.00  6.42     0.171 C 
HETATM    4  O2  RAP A 108       8.002   1.078 -13.215  1.00 14.08    -0.262 OA
HETATM    5  C3  RAP A 108      10.188   2.855 -12.656  1.00  5.50     0.033 C 
HETATM    6  O3  RAP A 108       7.404   5.549 -12.379  1.00 10.38    -0.264 OA
HETATM    7  C4  RAP A 108      10.868   2.294 -11.415  1.00  4.49     0.004 C 
HETATM    8  O4  RAP A 108       8.687   6.980 -10.043  1.00 10.60    -0.281 OA
HETATM    9  C5  RAP A 108      10.694   3.296 -10.287  1.00  4.19     0.024 C 
HETATM   10  O5  RAP A 108       6.953   4.923  -8.380  1.00 10.76    -0.332 OA
HETATM   11  C6  RAP A 108       9.242   3.560 -10.028  1.00  3.25     0.105 C 
HETATM   12  N7  RAP A 108       8.656   4.098 -11.267  1.00  8.46    -0.307 N 
HETATM   13  C8  RAP A 108       7.935   5.229 -11.307  1.00 10.06     0.297 C 
HETATM   14  O8  RAP A 108       5.578  -7.374  -9.197  1.00 18.31    -0.293 OA
HETATM   15  C9  RAP A 108       7.823   6.109 -10.207  1.00 11.13     0.279 C 
HETATM   16  C10 RAP A 108       6.660   6.028  -9.203  1.00 16.59     0.246 C 
HETATM   17  C11 RAP A 108       5.251   5.804  -9.890  1.00 10.40     0.059 C 
HETATM   18  O11 RAP A 108       8.322  -0.141  -9.759  1.00  9.49    -0.296 OA
HETATM   19  C12 RAP A 108       4.175   5.418  -8.849  1.00 12.17     0.008 C 
HETATM   20  C13 RAP A 108       4.677   4.292  -7.956  1.00 12.80     0.030 C 
HETATM   21  C14 RAP A 108       6.070   4.544  -7.385  1.00 10.37     0.121 C 
HETATM   22  C15 RAP A 108       6.638   3.249  -6.832  1.00  5.94     0.064 C 
HETATM   23  C16 RAP A 108       5.990   2.703  -5.566  1.00  9.79     0.136 C 
HETATM   24  C17 RAP A 108       6.622   1.395  -5.143  1.00 15.52    -0.017 C 
HETATM   25  C18 RAP A 108       5.888   0.291  -5.194  1.00 14.38    -0.006 C 
HETATM   26  C19 RAP A 108       6.368  -1.053  -4.845  1.00  9.73    -0.001 C 
HETATM   27  C20 RAP A 108       5.520  -2.071  -4.888  1.00 10.26    -0.000 C 
HETATM   28  C21 RAP A 108       5.972  -3.453  -4.645  1.00 11.40    -0.005 C 
HETATM   29  C22 RAP A 108       5.193  -4.492  -4.882  1.00 17.77    -0.026 C 
HETATM   30  C23 RAP A 108       5.637  -5.933  -4.757  1.00 15.64     0.022 C 
HETATM   31  C24 RAP A 108       5.376  -6.587  -6.103  1.00 14.68     0.012 C 
HETATM   32  C25 RAP A 108       5.950  -5.905  -7.330  1.00 11.87     0.061 C 
HETATM   33  C26 RAP A 108       5.230  -6.364  -8.591  1.00 11.65     0.180 C 
HETATM   34  C27 RAP A 108       4.066  -5.500  -9.067  1.00  8.13     0.203 C 
HETATM   35  C28 RAP A 108       4.510  -4.279  -9.936  1.00 10.80     0.163 C 
HETATM   36  C29 RAP A 108       4.990  -3.074  -9.105  1.00  9.60    -0.019 C 
HETATM   37  C30 RAP A 108       6.263  -2.680  -9.067  1.00  8.55    -0.025 C 
HETATM   38  C31 RAP A 108       6.898  -1.489  -8.335  1.00  8.43     0.079 C 
HETATM   39  C32 RAP A 108       7.185  -0.368  -9.334  1.00 10.69     0.157 C 
HETATM   40  C33 RAP A 108       5.969   0.417  -9.813  1.00  6.51     0.095 C 
HETATM   41  C34 RAP A 108       6.012   0.693 -11.302  1.00  9.62     0.132 C 
HETATM   42  C43 RAP A 108       4.753   6.979 -10.783  1.00 11.25     0.005 C 
HETATM   43  C44 RAP A 108       8.080   1.483  -4.655  1.00 14.40     0.029 C 
HETATM   44  C45 RAP A 108       4.872  -6.647  -3.652  1.00  9.23     0.005 C 
HETATM   45  C46 RAP A 108       7.459  -6.134  -7.450  1.00 15.99     0.008 C 
HETATM   46  C47 RAP A 108       3.893  -2.380  -8.321  1.00 14.60     0.029 C 
HETATM   47  C48 RAP A 108       8.211  -1.950  -7.683  1.00  9.37     0.013 C 
ENDROOT
BRANCH  41  48
HETATM   48  C35 RAP A 108       4.698   1.055 -12.022  1.00  9.58     0.028 C 
HETATM   49  C49 RAP A 108       4.395   2.524 -11.950  1.00  8.29     0.003 C 
BRANCH  48  50
HETATM   50  C36 RAP A 108       3.515   0.239 -11.503  1.00 10.31     0.003 C 
BRANCH  50  51
HETATM   51  C37 RAP A 108       2.409   0.998 -10.765  1.00 22.90     0.003 C 
HETATM   52  C38 RAP A 108       1.034   0.556 -11.281  1.00 14.17     0.032 C 
HETATM   53  C39 RAP A 108      -0.118   1.357 -10.671  1.00 34.20     0.142 C 
HETATM   54  C40 RAP A 108      -0.023   1.327  -9.107  1.00 38.24     0.138 C 
HETATM   55  C41 RAP A 108       1.366   1.735  -8.575  1.00 16.32     0.032 C 
HETATM   56  C42 RAP A 108       2.464   0.919  -9.240  1.00 14.05     0.003 C 
BRANCH  53  57
HETATM   57  O12 RAP A 108      -1.304   0.740 -11.102  1.00 30.82    -0.352 OA
HETATM   58  C52 RAP A 108      -1.192  -0.173 -12.139  1.00 28.14     0.174 C 
ENDBRANCH  53  57
BRANCH  54  59
HETATM   59  O13 RAP A 108      -1.007   2.203  -8.562  1.00 28.84    -0.382 OA
HETATM   60  HO3 RAP A 108      -1.642   1.696  -8.040  1.00 13.32     0.210 HD
ENDBRANCH  54  59
ENDBRANCH  50  51
ENDBRANCH  48  50
ENDBRANCH  41  48
BRANCH  35  61
HETATM   61  O10 RAP A 108       5.563  -4.725 -10.801  1.00 12.16    -0.378 OA
HETATM   62  HO1 RAP A 108       5.647  -5.689 -10.790  1.00 13.32     0.211 HD
ENDBRANCH  35  61
BRANCH  16  63
HETATM   63  O6  RAP A 108       6.619   7.241  -8.446  1.00 14.16    -0.358 OA
HETATM   64  HO6 RAP A 108       5.705   7.534  -8.401  1.00 13.32     0.213 HD
ENDBRANCH  16  63
BRANCH  34  65
HETATM   65  O9  RAP A 108       3.226  -6.283  -9.872  1.00 23.09    -0.344 OA
HETATM   66  C51 RAP A 108       2.079  -5.655 -10.329  1.00 19.04     0.175 C 
ENDBRANCH  34  65
BRANCH  23  67
HETATM   67  O7  RAP A 108       6.163   3.649  -4.558  1.00 20.17    -0.350 OA
HETATM   68  C50 RAP A 108       5.021   4.007  -3.846  1.00 28.36     0.175 C 
ENDBRANCH  23  67
TORSDOF 9
ENDMDL
MODEL 3
REMARK VINA RESULT:    -6.282      5.806     10.343
REMARK INTER + INTRA:         -11.138
REMARK INTER:                  -8.341
REMARK INTRA:                  -2.797
REMARK UNBOUND:                -2.101
REMARK  9 active torsions:
REMARK  status: ('A' for Active; 'I' for Inactive)
REMARK    1  A    between atoms: O6_12  and  C10_19 
REMARK    2  A    between atoms: O7_14  and  C16_29 
REMARK    3  A    between atoms: O9_18  and  C27_40 
REMARK    4  A    between atoms: O10_20  and  C28_41 
REMARK    5  A    between atoms: O12_24  and  C39_52 
REMARK    6  A    between atoms: O13_26  and  C40_53 
REMARK    7  A    between atoms: C34_47  and  C35_48 
REMARK    8  A    between atoms: C35_48  and  C36_49 
REMARK    9  A    between atoms: C36_49  and  C37_50 
ROOT
HETATM    1  C1  RAP A 108      13.530  -3.216  -0.909  1.00  5.98     0.292 C 
HETATM    2  O1  RAP A 108      13.395  -2.171  -1.863  1.00  9.08    -0.302 OA
HETATM    3  C2  RAP A 108      14.186  -2.992   0.453  1.00  6.42     0.171 C 
HETATM    4  O2  RAP A 108      13.129  -4.336  -1.217  1.00 14.08    -0.262 OA
HETATM    5  C3  RAP A 108      13.389  -3.662   1.563  1.00  5.50     0.033 C 
HETATM    6  O3  RAP A 108      16.556  -1.743   0.389  1.00 10.38    -0.264 OA
HETATM    7  C4  RAP A 108      12.111  -2.922   1.929  1.00  4.49     0.004 C 
HETATM    8  O4  RAP A 108      16.123   0.597   2.255  1.00 10.60    -0.281 OA
HETATM    9  C5  RAP A 108      12.476  -1.490   2.278  1.00  4.19     0.024 C 
HETATM   10  O5  RAP A 108      14.464   1.702  -0.200  1.00 10.76    -0.332 OA
HETATM   11  C6  RAP A 108      13.170  -0.822   1.131  1.00  3.25     0.105 C 
HETATM   12  N7  RAP A 108      14.391  -1.591   0.836  1.00  8.46    -0.307 N 
HETATM   13  C8  RAP A 108      15.605  -1.029   0.734  1.00 10.06     0.297 C 
HETATM   14  O8  RAP A 108       5.624  -3.405  -7.239  1.00 18.31    -0.293 OA
HETATM   15  C9  RAP A 108      15.861   0.317   1.079  1.00 11.13     0.279 C 
HETATM   16  C10 RAP A 108      15.830   1.454   0.042  1.00 16.59     0.246 C 
HETATM   17  C11 RAP A 108      16.539   1.079  -1.323  1.00 10.40     0.059 C 
HETATM   18  O11 RAP A 108      10.489  -1.781  -1.421  1.00  9.49    -0.296 OA
HETATM   19  C12 RAP A 108      16.213   2.112  -2.427  1.00 12.17     0.008 C 
HETATM   20  C13 RAP A 108      14.714   2.366  -2.492  1.00 12.80     0.030 C 
HETATM   21  C14 RAP A 108      14.085   2.651  -1.132  1.00 10.37     0.121 C 
HETATM   22  C15 RAP A 108      12.575   2.520  -1.228  1.00  5.94     0.064 C 
HETATM   23  C16 RAP A 108      11.845   3.595  -2.024  1.00  9.79     0.136 C 
HETATM   24  C17 RAP A 108      10.356   3.329  -2.073  1.00 15.52    -0.017 C 
HETATM   25  C18 RAP A 108       9.805   3.032  -3.243  1.00 14.38    -0.006 C 
HETATM   26  C19 RAP A 108       8.384   2.720  -3.446  1.00  9.73    -0.001 C 
HETATM   27  C20 RAP A 108       7.943   2.489  -4.675  1.00 10.26    -0.000 C 
HETATM   28  C21 RAP A 108       6.550   2.075  -4.922  1.00 11.40    -0.005 C 
HETATM   29  C22 RAP A 108       6.152   1.646  -6.106  1.00 17.77    -0.026 C 
HETATM   30  C23 RAP A 108       4.768   1.106  -6.391  1.00 15.64     0.022 C 
HETATM   31  C24 RAP A 108       4.955  -0.288  -6.966  1.00 14.68     0.012 C 
HETATM   32  C25 RAP A 108       5.806  -1.259  -6.169  1.00 11.87     0.061 C 
HETATM   33  C26 RAP A 108       6.301  -2.396  -7.053  1.00 11.65     0.180 C 
HETATM   34  C27 RAP A 108       7.679  -2.224  -7.683  1.00  8.13     0.203 C 
HETATM   35  C28 RAP A 108       8.853  -2.638  -6.739  1.00 10.80     0.163 C 
HETATM   36  C29 RAP A 108       9.243  -1.546  -5.724  1.00  9.60    -0.019 C 
HETATM   37  C30 RAP A 108       9.013  -1.655  -4.416  1.00  8.55    -0.025 C 
HETATM   38  C31 RAP A 108       9.372  -0.692  -3.275  1.00  8.43     0.079 C 
HETATM   39  C32 RAP A 108      10.589  -1.224  -2.519  1.00 10.69     0.157 C 
HETATM   40  C33 RAP A 108      11.928  -1.074  -3.233  1.00  6.51     0.095 C 
HETATM   41  C34 RAP A 108      12.792  -2.311  -3.102  1.00  9.62     0.132 C 
HETATM   42  C43 RAP A 108      18.076   0.843  -1.230  1.00 11.25     0.005 C 
HETATM   43  C44 RAP A 108       9.608   3.463  -0.735  1.00 14.40     0.029 C 
HETATM   44  C45 RAP A 108       4.025   1.999  -7.374  1.00  9.23     0.005 C 
HETATM   45  C46 RAP A 108       5.055  -1.802  -4.951  1.00 15.99     0.008 C 
HETATM   46  C47 RAP A 108       9.897  -0.325  -6.343  1.00 14.60     0.029 C 
HETATM   47  C48 RAP A 108       8.173  -0.587  -2.319  1.00  9.37     0.013 C 
ENDROOT
BRANCH  41  48
HETATM   48  C35 RAP A 108      13.943  -2.514  -4.108  1.00  9.58     0.028 C 
HETATM   49  C49 RAP A 108      15.144  -1.678  -3.775  1.00  8.29     0.003 C 
BRANCH  48  50
HETATM   50  C36 RAP A 108      13.499  -2.261  -5.548  1.00 10.31     0.003 C 
BRANCH  50  51
HETATM   51  C37 RAP A 108      13.066  -3.476  -6.373  1.00 22.90     0.003 C 
HETATM   52  C38 RAP A 108      11.987  -4.264  -5.622  1.00 14.17     0.032 C 
HETATM   53  C39 RAP A 108      11.588  -5.558  -6.333  1.00 34.20     0.142 C 
HETATM   54  C40 RAP A 108      11.187  -5.252  -7.817  1.00 38.24     0.138 C 
HETATM   55  C41 RAP A 108      12.248  -4.429  -8.576  1.00 16.32     0.032 C 
HETATM   56  C42 RAP A 108      12.616  -3.172  -7.802  1.00 14.05     0.003 C 
BRANCH  53  57
HETATM   57  O12 RAP A 108      10.492  -6.080  -5.627  1.00 30.82    -0.352 OA
HETATM   58  C52 RAP A 108      10.572  -6.056  -4.243  1.00 28.14     0.174 C 
ENDBRANCH  53  57
BRANCH  54  59
HETATM   59  O13 RAP A 108      10.971  -6.482  -8.506  1.00 28.84    -0.382 OA
HETATM   60  HO3 RAP A 108      10.630  -6.304  -9.391  1.00 13.32     0.210 HD
ENDBRANCH  54  59
ENDBRANCH  50  51
ENDBRANCH  48  50
ENDBRANCH  41  48
BRANCH  35  61
HETATM   61  O10 RAP A 108       8.449  -3.825  -6.044  1.00 12.16    -0.378 OA
HETATM   62  HO1 RAP A 108       8.953  -4.599  -6.339  1.00 13.32     0.211 HD
ENDBRANCH  35  61
BRANCH  16  63
HETATM   63  O6  RAP A 108      16.474   2.603   0.599  1.00 14.16    -0.358 OA
HETATM   64  HO6 RAP A 108      15.792   3.220   0.879  1.00 13.32     0.213 HD
ENDBRANCH  16  63
BRANCH  34  65
HETATM   65  O9  RAP A 108       7.762  -3.050  -8.814  1.00 23.09    -0.344 OA
HETATM   66  C51 RAP A 108       8.911  -2.909  -9.575  1.00 19.04     0.175 C 
ENDBRANCH  34  65
BRANCH  23  67
HETATM   67  O7  RAP A 108      12.077   4.819  -1.398  1.00 20.17    -0.350 OA
HETATM   68  C50 RAP A 108      12.142   5.933  -2.230  1.00 28.36     0.175 C 
ENDBRANCH  23  67
TORSDOF 9
ENDMDL
MODEL 4
REMARK VINA RESULT:    -6.190      7.841     13.279
REMARK INTER + INTRA:         -11.005
REMARK INTER:                  -9.223
REMARK INTRA:                  -1.783
REMARK UNBOUND:                -2.101
REMARK  9 active torsions:
REMARK  status: ('A' for Active; 'I' for Inactive)
REMARK    1  A    between atoms: O6_12  and  C10_19 
REMARK    2  A    between atoms: O7_14  and  C16_29 
REMARK    3  A    between atoms: O9_18  and  C27_40 
REMARK    4  A    between atoms: O10_20  and  C28_41 
REMARK    5  A    between atoms: O12_24  and  C39_52 
REMARK    6  A    between atoms: O13_26  and  C40_53 
REMARK    7  A    between atoms: C34_47  and  C35_48 
REMARK    8  A    between atoms: C35_48  and  C36_49 
REMARK    9  A    between atoms: C36_49  and  C37_50 
ROOT
HETATM    1  C1  RAP A 108       5.591  -7.422  -7.408  1.00  5.98     0.292 C 
HETATM    2  O1  RAP A 108       5.726  -6.715  -6.183  1.00  9.08    -0.302 OA
HETATM    3  C2  RAP A 108       5.934  -6.786  -8.755  1.00  6.42     0.171 C 
HETATM    4  O2  RAP A 108       5.156  -8.571  -7.368  1.00 14.08    -0.262 OA
HETATM    5  C3  RAP A 108       6.720  -7.749  -9.633  1.00  5.50     0.033 C 
HETATM    6  O3  RAP A 108       4.863  -4.367  -9.180  1.00 10.38    -0.264 OA
HETATM    7  C4  RAP A 108       8.173  -7.911  -9.212  1.00  4.49     0.004 C 
HETATM    8  O4  RAP A 108       7.284  -2.675  -9.832  1.00 10.60    -0.281 OA
HETATM    9  C5  RAP A 108       8.810  -6.534  -9.168  1.00  4.19     0.024 C 
HETATM   10  O5  RAP A 108       7.757  -2.907  -6.714  1.00 10.76    -0.332 OA
HETATM   11  C6  RAP A 108       8.076  -5.637  -8.219  1.00  3.25     0.105 C 
HETATM   12  N7  RAP A 108       6.685  -5.528  -8.689  1.00  8.46    -0.307 N 
HETATM   13  C8  RAP A 108       6.062  -4.354  -8.874  1.00 10.06     0.297 C 
HETATM   14  O8  RAP A 108       7.838 -12.626   0.987  1.00 18.31    -0.293 OA
HETATM   15  C9  RAP A 108       6.732  -3.111  -8.814  1.00 11.13     0.279 C 
HETATM   16  C10 RAP A 108       6.797  -2.272  -7.526  1.00 16.59     0.246 C 
HETATM   17  C11 RAP A 108       5.420  -2.206  -6.747  1.00 10.40     0.059 C 
HETATM   18  O11 RAP A 108       8.185  -8.133  -5.326  1.00  9.49    -0.296 OA
HETATM   19  C12 RAP A 108       5.607  -1.631  -5.325  1.00 12.17     0.008 C 
HETATM   20  C13 RAP A 108       6.753  -2.334  -4.612  1.00 12.80     0.030 C 
HETATM   21  C14 RAP A 108       8.026  -2.423  -5.447  1.00 10.37     0.121 C 
HETATM   22  C15 RAP A 108       8.972  -3.440  -4.834  1.00  5.94     0.064 C 
HETATM   23  C16 RAP A 108       9.619  -3.059  -3.508  1.00  9.79     0.136 C 
HETATM   24  C17 RAP A 108      10.506  -4.171  -2.988  1.00 15.52    -0.017 C 
HETATM   25  C18 RAP A 108      10.151  -4.793  -1.872  1.00 14.38    -0.006 C 
HETATM   26  C19 RAP A 108      10.890  -5.907  -1.262  1.00  9.73    -0.001 C 
HETATM   27  C20 RAP A 108      10.461  -6.413  -0.114  1.00 10.26    -0.000 C 
HETATM   28  C21 RAP A 108      11.106  -7.594   0.490  1.00 11.40    -0.005 C 
HETATM   29  C22 RAP A 108      10.571  -8.230   1.515  1.00 17.77    -0.026 C 
HETATM   30  C23 RAP A 108      11.127  -9.507   2.106  1.00 15.64     0.022 C 
HETATM   31  C24 RAP A 108      10.007 -10.532   2.059  1.00 14.68     0.012 C 
HETATM   32  C25 RAP A 108       9.327 -10.757   0.721  1.00 11.87     0.061 C 
HETATM   33  C26 RAP A 108       7.963 -11.407   0.910  1.00 11.65     0.180 C 
HETATM   34  C27 RAP A 108       6.762 -10.469   0.986  1.00  8.13     0.203 C 
HETATM   35  C28 RAP A 108       6.210 -10.048  -0.414  1.00 10.80     0.163 C 
HETATM   36  C29 RAP A 108       6.997  -8.896  -1.067  1.00  9.60    -0.019 C 
HETATM   37  C30 RAP A 108       7.766  -9.060  -2.143  1.00  8.55    -0.025 C 
HETATM   38  C31 RAP A 108       8.575  -8.024  -2.936  1.00  8.43     0.079 C 
HETATM   39  C32 RAP A 108       7.837  -7.680  -4.230  1.00 10.69     0.157 C 
HETATM   40  C33 RAP A 108       6.611  -6.787  -4.075  1.00  6.51     0.095 C 
HETATM   41  C34 RAP A 108       5.451  -7.247  -4.934  1.00  9.62     0.132 C 
HETATM   42  C43 RAP A 108       4.270  -1.465  -7.492  1.00 11.25     0.005 C 
HETATM   43  C44 RAP A 108      11.776  -4.453  -3.811  1.00 14.40     0.029 C 
HETATM   44  C45 RAP A 108      11.598  -9.288   3.537  1.00  9.23     0.005 C 
HETATM   45  C46 RAP A 108      10.200 -11.586  -0.225  1.00 15.99     0.008 C 
HETATM   46  C47 RAP A 108       6.835  -7.558  -0.371  1.00 14.60     0.029 C 
HETATM   47  C48 RAP A 108       9.953  -8.618  -3.268  1.00  9.37     0.013 C 
ENDROOT
BRANCH  41  48
HETATM   48  C35 RAP A 108       4.032  -6.763  -4.574  1.00  9.58     0.028 C 
HETATM   49  C49 RAP A 108       4.021  -5.902  -3.344  1.00  8.29     0.003 C 
BRANCH  48  50
HETATM   50  C36 RAP A 108       3.049  -7.923  -4.424  1.00 10.31     0.003 C 
BRANCH  50  51
HETATM   51  C37 RAP A 108       2.286  -8.030  -3.102  1.00 22.90     0.003 C 
HETATM   52  C38 RAP A 108       0.778  -7.928  -3.355  1.00 14.17     0.032 C 
HETATM   53  C39 RAP A 108      -0.045  -7.910  -2.066  1.00 34.20     0.142 C 
HETATM   54  C40 RAP A 108       0.334  -9.140  -1.172  1.00 38.24     0.138 C 
HETATM   55  C41 RAP A 108       1.852  -9.277  -0.937  1.00 16.32     0.032 C 
HETATM   56  C42 RAP A 108       2.609  -9.262  -2.257  1.00 14.05     0.003 C 
BRANCH  53  57
HETATM   57  O12 RAP A 108      -1.393  -7.981  -2.452  1.00 30.82    -0.352 OA
HETATM   58  C52 RAP A 108      -1.783  -9.111  -3.153  1.00 28.14     0.174 C 
ENDBRANCH  53  57
BRANCH  54  59
HETATM   59  O13 RAP A 108      -0.324  -9.022   0.088  1.00 28.84    -0.382 OA
HETATM   60  HO3 RAP A 108      -0.550  -9.900   0.421  1.00 13.32     0.210 HD
ENDBRANCH  54  59
ENDBRANCH  50  51
ENDBRANCH  48  50
ENDBRANCH  41  48
BRANCH  35  61
HETATM   61  O10 RAP A 108       6.251 -11.205  -1.260  1.00 12.16    -0.378 OA
HETATM   62  HO1 RAP A 108       6.982 -11.794  -1.021  1.00 13.32     0.211 HD
ENDBRANCH  35  61
BRANCH  16  63
HETATM   63  O6  RAP A 108       7.203  -0.942  -7.862  1.00 14.16    -0.358 OA
HETATM   64  HO6 RAP A 108       6.917  -0.762  -8.762  1.00 13.32     0.213 HD
ENDBRANCH  16  63
BRANCH  34  65
HETATM   65  O9  RAP A 108       5.718 -11.129   1.649  1.00 23.09    -0.344 OA
HETATM   66  C51 RAP A 108       4.603 -10.356   1.929  1.00 19.04     0.175 C 
ENDBRANCH  34  65
BRANCH  23  67
HETATM   67  O7  RAP A 108      10.386  -1.916  -3.721  1.00 20.17    -0.350 OA
HETATM   68  C50 RAP A 108      10.309  -0.931  -2.741  1.00 28.36     0.175 C 
ENDBRANCH  23  67
TORSDOF 9
ENDMDL
MODEL 5
REMARK VINA RESULT:    -6.162     12.177     18.505
REMARK INTER + INTRA:         -10.965
REMARK INTER:                  -8.597
REMARK INTRA:                  -2.369
REMARK UNBOUND:                -2.101
REMARK  9 active torsions:
REMARK  status: ('A' for Active; 'I' for Inactive)
REMARK    1  A    between atoms: O6_12  and  C10_19 
REMARK    2  A    between atoms: O7_14  and  C16_29 
REMARK    3  A    between atoms: O9_18  and  C27_40 
REMARK    4  A    between atoms: O10_20  and  C28_41 
REMARK    5  A    between atoms: O12_24  and  C39_52 
REMARK    6  A    between atoms: O13_26  and  C40_53 
REMARK    7  A    between atoms: C34_47  and  C35_48 
REMARK    8  A    between atoms: C35_48  and  C36_49 
REMARK    9  A    between atoms: C36_49  and  C37_50 
ROOT
HETATM    1  C1  RAP A 108       2.131  -8.152  -2.156  1.00  5.98     0.292 C 
HETATM    2  O1  RAP A 108       2.894  -9.338  -2.338  1.00  9.08    -0.302 OA
HETATM    3  C2  RAP A 108       1.096  -7.687  -3.180  1.00  6.42     0.171 C 
HETATM    4  O2  RAP A 108       2.344  -7.476  -1.152  1.00 14.08    -0.262 OA
HETATM    5  C3  RAP A 108      -0.181  -7.222  -2.497  1.00  5.50     0.033 C 
HETATM    6  O3  RAP A 108       1.949  -7.630  -5.719  1.00 10.38    -0.264 OA
HETATM    7  C4  RAP A 108      -1.044  -8.361  -1.973  1.00  4.49     0.004 C 
HETATM    8  O4  RAP A 108      -0.099  -9.340  -7.145  1.00 10.60    -0.281 OA
HETATM    9  C5  RAP A 108      -1.328  -9.307  -3.126  1.00  4.19     0.024 C 
HETATM   10  O5  RAP A 108       1.487 -11.677  -5.722  1.00 10.76    -0.332 OA
HETATM   11  C6  RAP A 108      -0.054  -9.829  -3.716  1.00  3.25     0.105 C 
HETATM   12  N7  RAP A 108       0.723  -8.675  -4.198  1.00  8.46    -0.307 N 
HETATM   13  C8  RAP A 108       1.229  -8.598  -5.438  1.00 10.06     0.297 C 
HETATM   14  O8  RAP A 108       5.083 -13.340   6.029  1.00 18.31    -0.293 OA
HETATM   15  C9  RAP A 108       0.913  -9.524  -6.456  1.00 11.13     0.279 C 
HETATM   16  C10 RAP A 108       1.785 -10.759  -6.747  1.00 16.59     0.246 C 
HETATM   17  C11 RAP A 108       3.338 -10.449  -6.732  1.00 10.40     0.059 C 
HETATM   18  O11 RAP A 108       1.383 -10.935  -0.350  1.00  9.49    -0.296 OA
HETATM   19  C12 RAP A 108       4.170 -11.752  -6.713  1.00 12.17     0.008 C 
HETATM   20  C13 RAP A 108       3.658 -12.695  -5.633  1.00 12.80     0.030 C 
HETATM   21  C14 RAP A 108       2.146 -12.892  -5.664  1.00 10.37     0.121 C 
HETATM   22  C15 RAP A 108       1.685 -13.523  -4.362  1.00  5.94     0.064 C 
HETATM   23  C16 RAP A 108       2.079 -14.977  -4.130  1.00  9.79     0.136 C 
HETATM   24  C17 RAP A 108       1.592 -15.472  -2.785  1.00 15.52    -0.017 C 
HETATM   25  C18 RAP A 108       2.492 -15.777  -1.860  1.00 14.38    -0.006 C 
HETATM   26  C19 RAP A 108       2.174 -16.240  -0.502  1.00  9.73    -0.001 C 
HETATM   27  C20 RAP A 108       3.166 -16.564   0.317  1.00 10.26    -0.000 C 
HETATM   28  C21 RAP A 108       2.908 -16.939   1.719  1.00 11.40    -0.005 C 
HETATM   29  C22 RAP A 108       3.886 -17.064   2.597  1.00 17.77    -0.026 C 
HETATM   30  C23 RAP A 108       3.675 -17.338   4.070  1.00 15.64     0.022 C 
HETATM   31  C24 RAP A 108       4.371 -16.218   4.825  1.00 14.68     0.012 C 
HETATM   32  C25 RAP A 108       4.013 -14.794   4.440  1.00 11.87     0.061 C 
HETATM   33  C26 RAP A 108       5.093 -13.823   4.899  1.00 11.65     0.180 C 
HETATM   34  C27 RAP A 108       6.175 -13.471   3.883  1.00  8.13     0.203 C 
HETATM   35  C28 RAP A 108       5.762 -12.327   2.903  1.00 10.80     0.163 C 
HETATM   36  C29 RAP A 108       4.893 -12.808   1.725  1.00  9.60    -0.019 C 
HETATM   37  C30 RAP A 108       3.603 -12.496   1.600  1.00  8.55    -0.025 C 
HETATM   38  C31 RAP A 108       2.613 -12.851   0.481  1.00  8.43     0.079 C 
HETATM   39  C32 RAP A 108       2.399 -11.634  -0.419  1.00 10.69     0.157 C 
HETATM   40  C33 RAP A 108       3.546 -11.304  -1.368  1.00  6.51     0.095 C 
HETATM   41  C34 RAP A 108       3.829  -9.817  -1.435  1.00  9.62     0.132 C 
HETATM   42  C43 RAP A 108       3.836  -9.496  -7.859  1.00 11.25     0.005 C 
HETATM   43  C44 RAP A 108       0.066 -15.603  -2.634  1.00 14.40     0.029 C 
HETATM   44  C45 RAP A 108       4.250 -18.691   4.462  1.00  9.23     0.005 C 
HETATM   45  C46 RAP A 108       2.643 -14.387   4.988  1.00 15.99     0.008 C 
HETATM   46  C47 RAP A 108       5.626 -13.682   0.725  1.00 14.60     0.029 C 
HETATM   47  C48 RAP A 108       1.277 -13.268   1.115  1.00  9.37     0.013 C 
ENDROOT
BRANCH  41  48
HETATM   48  C35 RAP A 108       5.201  -9.353  -1.963  1.00  9.58     0.028 C 
HETATM   49  C49 RAP A 108       5.298  -9.453  -3.459  1.00  8.29     0.003 C 
BRANCH  48  50
HETATM   50  C36 RAP A 108       6.356 -10.101  -1.301  1.00 10.31     0.003 C 
BRANCH  50  51
HETATM   51  C37 RAP A 108       6.856  -9.571   0.045  1.00 22.90     0.003 C 
HETATM   52  C38 RAP A 108       8.138 -10.304   0.456  1.00 14.17     0.032 C 
HETATM   53  C39 RAP A 108       8.632  -9.909   1.848  1.00 34.20     0.142 C 
HETATM   54  C40 RAP A 108       8.773  -8.350   1.944  1.00 38.24     0.138 C 
HETATM   55  C41 RAP A 108       7.502  -7.597   1.501  1.00 16.32     0.032 C 
HETATM   56  C42 RAP A 108       7.051  -8.057   0.121  1.00 14.05     0.003 C 
BRANCH  53  57
HETATM   57  O12 RAP A 108       9.883 -10.524   2.017  1.00 30.82    -0.352 OA
HETATM   58  C52 RAP A 108      10.885 -10.154   1.134  1.00 28.14     0.174 C 
ENDBRANCH  53  57
BRANCH  54  59
HETATM   59  O13 RAP A 108       9.082  -7.991   3.290  1.00 28.84    -0.382 OA
HETATM   60  HO3 RAP A 108       9.530  -8.726   3.728  1.00 13.32     0.210 HD
ENDBRANCH  54  59
ENDBRANCH  50  51
ENDBRANCH  48  50
ENDBRANCH  41  48
BRANCH  35  61
HETATM   61  O10 RAP A 108       5.049 -11.343   3.663  1.00 12.16    -0.378 OA
HETATM   62  HO1 RAP A 108       5.627 -10.899   4.301  1.00 13.32     0.211 HD
ENDBRANCH  35  61
BRANCH  16  63
HETATM   63  O6  RAP A 108       1.430 -11.282  -8.030  1.00 14.16    -0.358 OA
HETATM   64  HO6 RAP A 108       0.736 -10.726  -8.397  1.00 13.32     0.213 HD
ENDBRANCH  16  63
BRANCH  34  65
HETATM   65  O9  RAP A 108       7.309 -13.020   4.574  1.00 23.09    -0.344 OA
HETATM   66  C51 RAP A 108       8.507 -13.117   3.885  1.00 19.04     0.175 C 
ENDBRANCH  34  65
BRANCH  23  67
HETATM   67  O7  RAP A 108       1.503 -15.741  -5.142  1.00 20.17    -0.350 OA
HETATM   68  C50 RAP A 108       2.299 -16.745  -5.686  1.00 28.36     0.175 C 
ENDBRANCH  23  67
TORSDOF 9
ENDMDL
MODEL 6
REMARK VINA RESULT:    -6.160      6.363     12.074
REMARK INTER + INTRA:         -10.962
REMARK INTER:                  -9.322
REMARK INTRA:                  -1.641
REMARK UNBOUND:                -2.101
REMARK  9 active torsions:
REMARK  status: ('A' for Active; 'I' for Inactive)
REMARK    1  A    between atoms: O6_12  and  C10_19 
REMARK    2  A    between atoms: O7_14  and  C16_29 
REMARK    3  A    between atoms: O9_18  and  C27_40 
REMARK    4  A    between atoms: O10_20  and  C28_41 
REMARK    5  A    between atoms: O12_24  and  C39_52 
REMARK    6  A    between atoms: O13_26  and  C40_53 
REMARK    7  A    between atoms: C34_47  and  C35_48 
REMARK    8  A    between atoms: C35_48  and  C36_49 
REMARK    9  A    between atoms: C36_49  and  C37_50 
ROOT
HETATM    1  C1  RAP A 108       7.829  -7.513  -4.407  1.00  5.98     0.292 C 
HETATM    2  O1  RAP A 108       6.489  -7.113  -4.666  1.00  9.08    -0.302 OA
HETATM    3  C2  RAP A 108       8.189  -8.449  -3.254  1.00  6.42     0.171 C 
HETATM    4  O2  RAP A 108       8.717  -7.058  -5.125  1.00 14.08    -0.262 OA
HETATM    5  C3  RAP A 108       9.192  -9.503  -3.696  1.00  5.50     0.033 C 
HETATM    6  O3  RAP A 108       7.147  -7.785  -0.876  1.00 10.38    -0.264 OA
HETATM    7  C4  RAP A 108       8.583 -10.606  -4.551  1.00  4.49     0.004 C 
HETATM    8  O4  RAP A 108       5.696 -10.310  -0.060  1.00 10.60    -0.281 OA
HETATM    9  C5  RAP A 108       7.423 -11.212  -3.783  1.00  4.19     0.024 C 
HETATM   10  O5  RAP A 108       3.634  -9.325  -2.245  1.00 10.76    -0.332 OA
HETATM   11  C6  RAP A 108       6.401 -10.170  -3.448  1.00  3.25     0.105 C 
HETATM   12  N7  RAP A 108       7.060  -9.143  -2.625  1.00  8.46    -0.307 N 
HETATM   13  C8  RAP A 108       6.571  -8.719  -1.449  1.00 10.06     0.297 C 
HETATM   14  O8  RAP A 108       5.103  -5.537 -13.961  1.00 18.31    -0.293 OA
HETATM   15  C9  RAP A 108       5.482  -9.342  -0.801  1.00 11.13     0.279 C 
HETATM   16  C10 RAP A 108       4.031  -8.858  -0.977  1.00 16.59     0.246 C 
HETATM   17  C11 RAP A 108       3.885  -7.282  -0.934  1.00 10.40     0.059 C 
HETATM   18  O11 RAP A 108       6.142  -8.865  -7.033  1.00  9.49    -0.296 OA
HETATM   19  C12 RAP A 108       2.488  -6.836  -1.424  1.00 12.17     0.008 C 
HETATM   20  C13 RAP A 108       2.146  -7.511  -2.745  1.00 12.80     0.030 C 
HETATM   21  C14 RAP A 108       2.378  -9.018  -2.736  1.00 10.37     0.121 C 
HETATM   22  C15 RAP A 108       2.377  -9.545  -4.160  1.00  5.94     0.064 C 
HETATM   23  C16 RAP A 108       1.038  -9.544  -4.889  1.00  9.79     0.136 C 
HETATM   24  C17 RAP A 108       1.182 -10.057  -6.306  1.00 15.52    -0.017 C 
HETATM   25  C18 RAP A 108       0.970  -9.213  -7.307  1.00 14.38    -0.006 C 
HETATM   26  C19 RAP A 108       1.099  -9.553  -8.731  1.00  9.73    -0.001 C 
HETATM   27  C20 RAP A 108       0.809  -8.634  -9.642  1.00 10.26    -0.000 C 
HETATM   28  C21 RAP A 108       1.017  -8.889 -11.079  1.00 11.40    -0.005 C 
HETATM   29  C22 RAP A 108       0.929  -7.925 -11.977  1.00 17.77    -0.026 C 
HETATM   30  C23 RAP A 108       1.238  -8.103 -13.447  1.00 15.64     0.022 C 
HETATM   31  C24 RAP A 108       2.306  -7.081 -13.794  1.00 14.68     0.012 C 
HETATM   32  C25 RAP A 108       3.556  -7.064 -12.934  1.00 11.87     0.061 C 
HETATM   33  C26 RAP A 108       4.286  -5.734 -13.066  1.00 11.65     0.180 C 
HETATM   34  C27 RAP A 108       3.959  -4.667 -12.026  1.00  8.13     0.203 C 
HETATM   35  C28 RAP A 108       4.772  -4.819 -10.700  1.00 10.80     0.163 C 
HETATM   36  C29 RAP A 108       4.183  -5.863  -9.732  1.00  9.60    -0.019 C 
HETATM   37  C30 RAP A 108       4.779  -7.025  -9.467  1.00  8.55    -0.025 C 
HETATM   38  C31 RAP A 108       4.358  -8.147  -8.507  1.00  8.43     0.079 C 
HETATM   39  C32 RAP A 108       5.209  -8.082  -7.239  1.00 10.69     0.157 C 
HETATM   40  C33 RAP A 108       4.867  -6.956  -6.270  1.00  6.51     0.095 C 
HETATM   41  C34 RAP A 108       6.103  -6.286  -5.707  1.00  9.62     0.132 C 
HETATM   42  C43 RAP A 108       4.223  -6.621   0.435  1.00 11.25     0.005 C 
HETATM   43  C44 RAP A 108       1.538 -11.547  -6.445  1.00 14.40     0.029 C 
HETATM   44  C45 RAP A 108      -0.007  -7.891 -14.297  1.00  9.23     0.005 C 
HETATM   45  C46 RAP A 108       4.488  -8.232 -13.267  1.00 15.99     0.008 C 
HETATM   46  C47 RAP A 108       2.857  -5.463  -9.115  1.00 14.60     0.029 C 
HETATM   47  C48 RAP A 108       4.567  -9.501  -9.203  1.00  9.37     0.013 C 
ENDROOT
BRANCH  41  48
HETATM   48  C35 RAP A 108       5.962  -4.878  -5.095  1.00  9.58     0.028 C 
HETATM   49  C49 RAP A 108       5.142  -4.884  -3.837  1.00  8.29     0.003 C 
BRANCH  48  50
HETATM   50  C36 RAP A 108       5.399  -3.869  -6.095  1.00 10.31     0.003 C 
BRANCH  50  51
HETATM   51  C37 RAP A 108       5.308  -2.409  -5.643  1.00 22.90     0.003 C 
HETATM   52  C38 RAP A 108       6.651  -1.956  -5.058  1.00 14.17     0.032 C 
HETATM   53  C39 RAP A 108       6.601  -0.541  -4.478  1.00 34.20     0.142 C 
HETATM   54  C40 RAP A 108       6.043   0.458  -5.549  1.00 38.24     0.138 C 
HETATM   55  C41 RAP A 108       4.710  -0.002  -6.173  1.00 16.32     0.032 C 
HETATM   56  C42 RAP A 108       4.822  -1.424  -6.705  1.00 14.05     0.003 C 
BRANCH  53  57
HETATM   57  O12 RAP A 108       7.921  -0.204  -4.135  1.00 30.82    -0.352 OA
HETATM   58  C52 RAP A 108       8.181   0.013  -2.791  1.00 28.14     0.174 C 
ENDBRANCH  53  57
BRANCH  54  59
HETATM   59  O13 RAP A 108       5.857   1.736  -4.944  1.00 28.84    -0.382 OA
HETATM   60  HO3 RAP A 108       5.958   2.429  -5.609  1.00 13.32     0.210 HD
ENDBRANCH  54  59
ENDBRANCH  50  51
ENDBRANCH  48  50
ENDBRANCH  41  48
BRANCH  35  61
HETATM   61  O10 RAP A 108       6.112  -5.186 -11.055  1.00 12.16    -0.378 OA
HETATM   62  HO1 RAP A 108       6.145  -5.614 -11.923  1.00 13.32     0.211 HD
ENDBRANCH  35  61
BRANCH  16  63
HETATM   63  O6  RAP A 108       3.226  -9.428   0.059  1.00 14.16    -0.358 OA
HETATM   64  HO6 RAP A 108       2.372  -8.987   0.049  1.00 13.32     0.213 HD
ENDBRANCH  16  63
BRANCH  34  65
HETATM   65  O9  RAP A 108       4.283  -3.409 -12.555  1.00 23.09    -0.344 OA
HETATM   66  C51 RAP A 108       3.692  -2.326 -11.927  1.00 19.04     0.175 C 
ENDBRANCH  34  65
BRANCH  23  67
HETATM   67  O7  RAP A 108       0.169 -10.373  -4.182  1.00 20.17    -0.350 OA
HETATM   68  C50 RAP A 108      -1.108  -9.871  -3.949  1.00 28.36     0.175 C 
ENDBRANCH  23  67
TORSDOF 9
ENDMDL
MODEL 7
REMARK VINA RESULT:    -6.116      5.794     10.904
REMARK INTER + INTRA:         -10.898
REMARK INTER:                  -8.285
REMARK INTRA:                  -2.614
REMARK UNBOUND:                -2.101
REMARK  9 active torsions:
REMARK  status: ('A' for Active; 'I' for Inactive)
REMARK    1  A    between atoms: O6_12  and  C10_19 
REMARK    2  A    between atoms: O7_14  and  C16_29 
REMARK    3  A    between atoms: O9_18  and  C27_40 
REMARK    4  A    between atoms: O10_20  and  C28_41 
REMARK    5  A    between atoms: O12_24  and  C39_52 
REMARK    6  A    between atoms: O13_26  and  C40_53 
REMARK    7  A    between atoms: C34_47  and  C35_48 
REMARK    8  A    between atoms: C35_48  and  C36_49 
REMARK    9  A    between atoms: C36_49  and  C37_50 
ROOT
HETATM    1  C1  RAP A 108      13.523  -3.257  -0.901  1.00  5.98     0.292 C 
HETATM    2  O1  RAP A 108      13.390  -2.208  -1.851  1.00  9.08    -0.302 OA
HETATM    3  C2  RAP A 108      14.182  -3.041   0.461  1.00  6.42     0.171 C 
HETATM    4  O2  RAP A 108      13.118  -4.375  -1.212  1.00 14.08    -0.262 OA
HETATM    5  C3  RAP A 108      13.385  -3.712   1.570  1.00  5.50     0.033 C 
HETATM    6  O3  RAP A 108      16.556  -1.800   0.398  1.00 10.38    -0.264 OA
HETATM    7  C4  RAP A 108      12.109  -2.969   1.941  1.00  4.49     0.004 C 
HETATM    8  O4  RAP A 108      16.135   0.535   2.274  1.00 10.60    -0.281 OA
HETATM    9  C5  RAP A 108      12.481  -1.540   2.294  1.00  4.19     0.024 C 
HETATM   10  O5  RAP A 108      14.476   1.654  -0.175  1.00 10.76    -0.332 OA
HETATM   11  C6  RAP A 108      13.175  -0.870   1.148  1.00  3.25     0.105 C 
HETATM   12  N7  RAP A 108      14.393  -1.642   0.849  1.00  8.46    -0.307 N 
HETATM   13  C8  RAP A 108      15.609  -1.084   0.747  1.00 10.06     0.297 C 
HETATM   14  O8  RAP A 108       5.607  -3.396  -7.219  1.00 18.31    -0.293 OA
HETATM   15  C9  RAP A 108      15.869   0.260   1.097  1.00 11.13     0.279 C 
HETATM   16  C10 RAP A 108      15.840   1.401   0.063  1.00 16.59     0.246 C 
HETATM   17  C11 RAP A 108      16.547   1.029  -1.304  1.00 10.40     0.059 C 
HETATM   18  O11 RAP A 108      10.487  -1.810  -1.403  1.00  9.49    -0.296 OA
HETATM   19  C12 RAP A 108      16.222   2.067  -2.403  1.00 12.17     0.008 C 
HETATM   20  C13 RAP A 108      14.724   2.326  -2.465  1.00 12.80     0.030 C 
HETATM   21  C14 RAP A 108      14.098   2.608  -1.103  1.00 10.37     0.121 C 
HETATM   22  C15 RAP A 108      12.588   2.483  -1.197  1.00  5.94     0.064 C 
HETATM   23  C16 RAP A 108      11.860   3.564  -1.988  1.00  9.79     0.136 C 
HETATM   24  C17 RAP A 108      10.370   3.302  -2.036  1.00 15.52    -0.017 C 
HETATM   25  C18 RAP A 108       9.816   3.011  -3.206  1.00 14.38    -0.006 C 
HETATM   26  C19 RAP A 108       8.393   2.705  -3.407  1.00  9.73    -0.001 C 
HETATM   27  C20 RAP A 108       7.950   2.480  -4.636  1.00 10.26    -0.000 C 
HETATM   28  C21 RAP A 108       6.555   2.072  -4.884  1.00 11.40    -0.005 C 
HETATM   29  C22 RAP A 108       6.154   1.649  -6.068  1.00 17.77    -0.026 C 
HETATM   30  C23 RAP A 108       4.767   1.114  -6.353  1.00 15.64     0.022 C 
HETATM   31  C24 RAP A 108       4.948  -0.278  -6.933  1.00 14.68     0.012 C 
HETATM   32  C25 RAP A 108       5.798  -1.255  -6.142  1.00 11.87     0.061 C 
HETATM   33  C26 RAP A 108       6.287  -2.390  -7.031  1.00 11.65     0.180 C 
HETATM   34  C27 RAP A 108       7.665  -2.221  -7.662  1.00  8.13     0.203 C 
HETATM   35  C28 RAP A 108       8.839  -2.642  -6.721  1.00 10.80     0.163 C 
HETATM   36  C29 RAP A 108       9.234  -1.555  -5.703  1.00  9.60    -0.019 C 
HETATM   37  C30 RAP A 108       9.006  -1.668  -4.395  1.00  8.55    -0.025 C 
HETATM   38  C31 RAP A 108       9.370  -0.711  -3.251  1.00  8.43     0.079 C 
HETATM   39  C32 RAP A 108      10.587  -1.250  -2.499  1.00 10.69     0.157 C 
HETATM   40  C33 RAP A 108      11.925  -1.101  -3.214  1.00  6.51     0.095 C 
HETATM   41  C34 RAP A 108      12.785  -2.342  -3.089  1.00  9.62     0.132 C 
HETATM   42  C43 RAP A 108      18.083   0.787  -1.214  1.00 11.25     0.005 C 
HETATM   43  C44 RAP A 108       9.624   3.434  -0.696  1.00 14.40     0.029 C 
HETATM   44  C45 RAP A 108       4.026   2.013  -7.332  1.00  9.23     0.005 C 
HETATM   45  C46 RAP A 108       5.046  -1.800  -4.924  1.00 15.99     0.008 C 
HETATM   46  C47 RAP A 108       9.892  -0.335  -6.319  1.00 14.60     0.029 C 
HETATM   47  C48 RAP A 108       8.173  -0.606  -2.293  1.00  9.37     0.013 C 
ENDROOT
BRANCH  41  48
HETATM   48  C35 RAP A 108      13.933  -2.545  -4.098  1.00  9.58     0.028 C 
HETATM   49  C49 RAP A 108      15.211  -1.901  -3.643  1.00  8.29     0.003 C 
BRANCH  48  50
HETATM   50  C36 RAP A 108      13.561  -2.061  -5.499  1.00 10.31     0.003 C 
BRANCH  50  51
HETATM   51  C37 RAP A 108      14.262  -0.804  -6.017  1.00 22.90     0.003 C 
HETATM   52  C38 RAP A 108      14.575  -0.954  -7.510  1.00 14.17     0.032 C 
HETATM   53  C39 RAP A 108      15.382   0.218  -8.072  1.00 34.20     0.142 C 
HETATM   54  C40 RAP A 108      14.664   1.571  -7.740  1.00 38.24     0.138 C 
HETATM   55  C41 RAP A 108      14.311   1.721  -6.247  1.00 16.32     0.032 C 
HETATM   56  C42 RAP A 108      13.533   0.512  -5.748  1.00 14.05     0.003 C 
BRANCH  53  57
HETATM   57  O12 RAP A 108      15.449   0.027  -9.462  1.00 30.82    -0.352 OA
HETATM   58  C52 RAP A 108      14.246  -0.172 -10.123  1.00 28.14     0.174 C 
ENDBRANCH  53  57
BRANCH  54  59
HETATM   59  O13 RAP A 108      15.505   2.655  -8.132  1.00 28.84    -0.382 OA
HETATM   60  HO3 RAP A 108      14.978   3.459  -8.222  1.00 13.32     0.210 HD
ENDBRANCH  54  59
ENDBRANCH  50  51
ENDBRANCH  48  50
ENDBRANCH  41  48
BRANCH  35  61
HETATM   61  O10 RAP A 108       8.432  -3.831  -6.029  1.00 12.16    -0.378 OA
HETATM   62  HO1 RAP A 108       8.895  -4.613  -6.365  1.00 13.32     0.211 HD
ENDBRANCH  35  61
BRANCH  16  63
HETATM   63  O6  RAP A 108      16.489   2.546   0.624  1.00 14.16    -0.358 OA
HETATM   64  HO6 RAP A 108      17.360   2.622   0.222  1.00 13.32     0.213 HD
ENDBRANCH  16  63
BRANCH  34  65
HETATM   65  O9  RAP A 108       7.743  -3.042  -8.796  1.00 23.09    -0.344 OA
HETATM   66  C51 RAP A 108       8.940  -2.992  -9.490  1.00 19.04     0.175 C 
ENDBRANCH  34  65
BRANCH  23  67
HETATM   67  O7  RAP A 108      12.097   4.784  -1.358  1.00 20.17    -0.350 OA
HETATM   68  C50 RAP A 108      12.231   5.891  -2.191  1.00 28.36     0.175 C 
ENDBRANCH  23  67
TORSDOF 9
ENDMDL
MODEL 8
REMARK VINA RESULT:    -6.082     10.686     16.974
REMARK INTER + INTRA:         -10.849
REMARK INTER:                  -8.180
REMARK INTRA:                  -2.669
REMARK UNBOUND:                -2.101
REMARK  9 active torsions:
REMARK  status: ('A' for Active; 'I' for Inactive)
REMARK    1  A    between atoms: O6_12  and  C10_19 
REMARK    2  A    between atoms: O7_14  and  C16_29 
REMARK    3  A    between atoms: O9_18  and  C27_40 
REMARK    4  A    between atoms: O10_20  and  C28_41 
REMARK    5  A    between atoms: O12_24  and  C39_52 
REMARK    6  A    between atoms: O13_26  and  C40_53 
REMARK    7  A    between atoms: C34_47  and  C35_48 
REMARK    8  A    between atoms: C35_48  and  C36_49 
REMARK    9  A    between atoms: C36_49  and  C37_50 
ROOT
HETATM    1  C1  RAP A 108       2.308  -8.773  -0.940  1.00  5.98     0.292 C 
HETATM    2  O1  RAP A 108       3.554  -8.983  -1.592  1.00  9.08    -0.302 OA
HETATM    3  C2  RAP A 108       0.974  -8.930  -1.669  1.00  6.42     0.171 C 
HETATM    4  O2  RAP A 108       2.323  -8.425   0.238  1.00 14.08    -0.262 OA
HETATM    5  C3  RAP A 108      -0.032  -9.687  -0.815  1.00  5.50     0.033 C 
HETATM    6  O3  RAP A 108       0.799  -7.656  -4.020  1.00 10.38    -0.264 OA
HETATM    7  C4  RAP A 108       0.233 -11.183  -0.740  1.00  4.49     0.004 C 
HETATM    8  O4  RAP A 108       0.012  -9.873  -5.919  1.00 10.60    -0.281 OA
HETATM    9  C5  RAP A 108       0.295 -11.724  -2.157  1.00  4.19     0.024 C 
HETATM   10  O5  RAP A 108       3.050 -10.679  -5.563  1.00 10.76    -0.332 OA
HETATM   11  C6  RAP A 108       1.362 -11.031  -2.947  1.00  3.25     0.105 C 
HETATM   12  N7  RAP A 108       1.039  -9.595  -2.975  1.00  8.46    -0.307 N 
HETATM   13  C8  RAP A 108       0.986  -8.876  -4.107  1.00 10.06     0.297 C 
HETATM   14  O8  RAP A 108      10.121 -12.225   4.506  1.00 18.31    -0.293 OA
HETATM   15  C9  RAP A 108       1.052  -9.460  -5.392  1.00 11.13     0.279 C 
HETATM   16  C10 RAP A 108       2.376  -9.599  -6.166  1.00 16.59     0.246 C 
HETATM   17  C11 RAP A 108       3.289  -8.308  -6.088  1.00 10.40     0.059 C 
HETATM   18  O11 RAP A 108       4.080 -11.609  -0.320  1.00  9.49    -0.296 OA
HETATM   19  C12 RAP A 108       4.717  -8.599  -6.602  1.00 12.17     0.008 C 
HETATM   20  C13 RAP A 108       5.271  -9.859  -5.950  1.00 12.80     0.030 C 
HETATM   21  C14 RAP A 108       4.310 -11.043  -6.001  1.00 10.37     0.121 C 
HETATM   22  C15 RAP A 108       4.767 -12.115  -5.028  1.00  5.94     0.064 C 
HETATM   23  C16 RAP A 108       6.043 -12.866  -5.387  1.00  9.79     0.136 C 
HETATM   24  C17 RAP A 108       6.406 -13.877  -4.320  1.00 15.52    -0.017 C 
HETATM   25  C18 RAP A 108       7.513 -13.682  -3.616  1.00 14.38    -0.006 C 
HETATM   26  C19 RAP A 108       7.981 -14.556  -2.531  1.00  9.73    -0.001 C 
HETATM   27  C20 RAP A 108       9.134 -14.283  -1.935  1.00 10.26    -0.000 C 
HETATM   28  C21 RAP A 108       9.601 -15.067  -0.777  1.00 11.40    -0.005 C 
HETATM   29  C22 RAP A 108      10.635 -14.685  -0.050  1.00 17.77    -0.026 C 
HETATM   30  C23 RAP A 108      11.091 -15.387   1.210  1.00 15.64     0.022 C 
HETATM   31  C24 RAP A 108      11.095 -14.342   2.312  1.00 14.68     0.012 C 
HETATM   32  C25 RAP A 108       9.820 -13.545   2.518  1.00 11.87     0.061 C 
HETATM   33  C26 RAP A 108      10.104 -12.256   3.278  1.00 11.65     0.180 C 
HETATM   34  C27 RAP A 108      10.352 -11.007   2.438  1.00  8.13     0.203 C 
HETATM   35  C28 RAP A 108       9.041 -10.286   1.989  1.00 10.80     0.163 C 
HETATM   36  C29 RAP A 108       8.383 -10.920   0.748  1.00  9.60    -0.019 C 
HETATM   37  C30 RAP A 108       7.229 -11.585   0.798  1.00  8.55    -0.025 C 
HETATM   38  C31 RAP A 108       6.421 -12.234  -0.335  1.00  8.43     0.079 C 
HETATM   39  C32 RAP A 108       5.229 -11.345  -0.688  1.00 10.69     0.157 C 
HETATM   40  C33 RAP A 108       5.556 -10.083  -1.478  1.00  6.51     0.095 C 
HETATM   41  C34 RAP A 108       4.790  -8.875  -0.977  1.00  9.62     0.132 C 
HETATM   42  C43 RAP A 108       2.705  -7.039  -6.778  1.00 11.25     0.005 C 
HETATM   43  C44 RAP A 108       5.447 -15.073  -4.177  1.00 14.40     0.029 C 
HETATM   44  C45 RAP A 108      12.479 -15.985   1.031  1.00  9.23     0.005 C 
HETATM   45  C46 RAP A 108       8.745 -14.372   3.230  1.00 15.99     0.008 C 
HETATM   46  C47 RAP A 108       9.168 -10.738  -0.537  1.00 14.60     0.029 C 
HETATM   47  C48 RAP A 108       5.921 -13.609   0.136  1.00  9.37     0.013 C 
ENDROOT
BRANCH  41  48
HETATM   48  C35 RAP A 108       5.316  -7.471  -1.334  1.00  9.58     0.028 C 
HETATM   49  C49 RAP A 108       5.403  -6.574  -0.133  1.00  8.29     0.003 C 
BRANCH  48  50
HETATM   50  C36 RAP A 108       4.491  -6.810  -2.437  1.00 10.31     0.003 C 
BRANCH  50  51
HETATM   51  C37 RAP A 108       5.200  -6.507  -3.759  1.00 22.90     0.003 C 
HETATM   52  C38 RAP A 108       4.845  -5.092  -4.233  1.00 14.17     0.032 C 
HETATM   53  C39 RAP A 108       5.426  -4.761  -5.609  1.00 34.20     0.142 C 
HETATM   54  C40 RAP A 108       6.970  -5.030  -5.618  1.00 38.24     0.138 C 
HETATM   55  C41 RAP A 108       7.345  -6.437  -5.110  1.00 16.32     0.032 C 
HETATM   56  C42 RAP A 108       6.715  -6.710  -3.752  1.00 14.05     0.003 C 
BRANCH  53  57
HETATM   57  O12 RAP A 108       5.164  -3.399  -5.835  1.00 30.82    -0.352 OA
HETATM   58  C52 RAP A 108       5.569  -2.514  -4.848  1.00 28.14     0.174 C 
ENDBRANCH  53  57
BRANCH  54  59
HETATM   59  O13 RAP A 108       7.464  -4.867  -6.946  1.00 28.84    -0.382 OA
HETATM   60  HO3 RAP A 108       7.897  -4.008  -7.029  1.00 13.32     0.210 HD
ENDBRANCH  54  59
ENDBRANCH  50  51
ENDBRANCH  48  50
ENDBRANCH  41  48
BRANCH  35  61
HETATM   61  O10 RAP A 108       8.129 -10.320   3.094  1.00 12.16    -0.378 OA
HETATM   62  HO1 RAP A 108       7.224 -10.119   2.814  1.00 13.32     0.211 HD
ENDBRANCH  35  61
BRANCH  16  63
HETATM   63  O6  RAP A 108       2.079  -9.875  -7.538  1.00 14.16    -0.358 OA
HETATM   64  HO6 RAP A 108       1.512  -9.172  -7.868  1.00 13.32     0.213 HD
ENDBRANCH  16  63
BRANCH  34  65
HETATM   65  O9  RAP A 108      11.076 -10.085   3.208  1.00 23.09    -0.344 OA
HETATM   66  C51 RAP A 108      11.367  -8.883   2.584  1.00 19.04     0.175 C 
ENDBRANCH  34  65
BRANCH  23  67
HETATM   67  O7  RAP A 108       5.822 -13.526  -6.594  1.00 20.17    -0.350 OA
HETATM   68  C50 RAP A 108       6.868 -13.496  -7.512  1.00 28.36     0.175 C 
ENDBRANCH  23  67
TORSDOF 9
ENDMDL
MODEL 9
REMARK VINA RESULT:    -6.012     14.287     19.655
REMARK INTER + INTRA:         -10.749
REMARK INTER:                  -8.534
REMARK INTRA:                  -2.215
REMARK UNBOUND:                -2.101
REMARK  9 active torsions:
REMARK  status: ('A' for Active; 'I' for Inactive)
REMARK    1  A    between atoms: O6_12  and  C10_19 
REMARK    2  A    between atoms: O7_14  and  C16_29 
REMARK    3  A    between atoms: O9_18  and  C27_40 
REMARK    4  A    between atoms: O10_20  and  C28_41 
REMARK    5  A    between atoms: O12_24  and  C39_52 
REMARK    6  A    between atoms: O13_26  and  C40_53 
REMARK    7  A    between atoms: C34_47  and  C35_48 
REMARK    8  A    between atoms: C35_48  and  C36_49 
REMARK    9  A    between atoms: C36_49  and  C37_50 
ROOT
HETATM    1  C1  RAP A 108       4.299 -12.794   2.938  1.00  5.98     0.292 C 
HETATM    2  O1  RAP A 108       5.429 -12.980   2.095  1.00  9.08    -0.302 OA
HETATM    3  C2  RAP A 108       3.616 -13.960   3.651  1.00  6.42     0.171 C 
HETATM    4  O2  RAP A 108       3.852 -11.656   3.061  1.00 14.08    -0.262 OA
HETATM    5  C3  RAP A 108       3.290 -13.605   5.094  1.00  5.50     0.033 C 
HETATM    6  O3  RAP A 108       3.037 -16.066   2.099  1.00 10.38    -0.264 OA
HETATM    7  C4  RAP A 108       4.503 -13.605   6.013  1.00  4.49     0.004 C 
HETATM    8  O4  RAP A 108       4.384 -18.351   3.553  1.00 10.60    -0.281 OA
HETATM    9  C5  RAP A 108       5.182 -14.958   5.900  1.00  4.19     0.024 C 
HETATM   10  O5  RAP A 108       6.987 -17.033   2.334  1.00 10.76    -0.332 OA
HETATM   11  C6  RAP A 108       5.583 -15.238   4.485  1.00  3.25     0.105 C 
HETATM   12  N7  RAP A 108       4.364 -15.223   3.660  1.00  8.46    -0.307 N 
HETATM   13  C8  RAP A 108       4.033 -16.215   2.820  1.00 10.06     0.297 C 
HETATM   14  O8  RAP A 108      11.128  -5.344   2.241  1.00 18.31    -0.293 OA
HETATM   15  C9  RAP A 108       4.721 -17.448   2.778  1.00 11.13     0.279 C 
HETATM   16  C10 RAP A 108       5.877 -17.713   1.797  1.00 16.59     0.246 C 
HETATM   17  C11 RAP A 108       5.596 -17.177   0.334  1.00 10.40     0.059 C 
HETATM   18  O11 RAP A 108       7.391 -11.899   4.037  1.00  9.49    -0.296 OA
HETATM   19  C12 RAP A 108       6.884 -17.180  -0.521  1.00 12.17     0.008 C 
HETATM   20  C13 RAP A 108       8.027 -16.516   0.235  1.00 12.80     0.030 C 
HETATM   21  C14 RAP A 108       8.195 -17.032   1.660  1.00 10.37     0.121 C 
HETATM   22  C15 RAP A 108       9.080 -16.083   2.447  1.00  5.94     0.064 C 
HETATM   23  C16 RAP A 108      10.555 -16.046   2.065  1.00  9.79     0.136 C 
HETATM   24  C17 RAP A 108      11.316 -15.037   2.897  1.00 15.52    -0.017 C 
HETATM   25  C18 RAP A 108      11.819 -13.969   2.292  1.00 14.38    -0.006 C 
HETATM   26  C19 RAP A 108      12.554 -12.891   2.967  1.00  9.73    -0.001 C 
HETATM   27  C20 RAP A 108      13.055 -11.900   2.243  1.00 10.26    -0.000 C 
HETATM   28  C21 RAP A 108      13.713 -10.744   2.879  1.00 11.40    -0.005 C 
HETATM   29  C22 RAP A 108      14.032  -9.662   2.194  1.00 17.77    -0.026 C 
HETATM   30  C23 RAP A 108      14.606  -8.405   2.811  1.00 15.64     0.022 C 
HETATM   31  C24 RAP A 108      13.679  -7.267   2.424  1.00 14.68     0.012 C 
HETATM   32  C25 RAP A 108      12.202  -7.440   2.725  1.00 11.87     0.061 C 
HETATM   33  C26 RAP A 108      11.362  -6.494   1.877  1.00 11.65     0.180 C 
HETATM   34  C27 RAP A 108      10.818  -7.050   0.565  1.00  8.13     0.203 C 
HETATM   35  C28 RAP A 108       9.488  -7.853   0.732  1.00 10.80     0.163 C 
HETATM   36  C29 RAP A 108       9.700  -9.308   1.195  1.00  9.60    -0.019 C 
HETATM   37  C30 RAP A 108       9.353  -9.742   2.406  1.00  8.55    -0.025 C 
HETATM   38  C31 RAP A 108       9.453 -11.151   3.007  1.00  8.43     0.079 C 
HETATM   39  C32 RAP A 108       8.071 -11.805   3.011  1.00 10.69     0.157 C 
HETATM   40  C33 RAP A 108       7.563 -12.285   1.656  1.00  6.51     0.095 C 
HETATM   41  C34 RAP A 108       6.099 -11.960   1.441  1.00  9.62     0.132 C 
HETATM   42  C43 RAP A 108       4.434 -17.886  -0.422  1.00 11.25     0.005 C 
HETATM   43  C44 RAP A 108      11.457 -15.374   4.392  1.00 14.40     0.029 C 
HETATM   44  C45 RAP A 108      16.019  -8.146   2.308  1.00  9.23     0.005 C 
HETATM   45  C46 RAP A 108      11.903  -7.250   4.214  1.00 15.99     0.008 C 
HETATM   46  C47 RAP A 108      10.353 -10.203   0.158  1.00 14.60     0.029 C 
HETATM   47  C48 RAP A 108       9.978 -11.040   4.447  1.00  9.37     0.013 C 
ENDROOT
BRANCH  41  48
HETATM   48  C35 RAP A 108       5.551 -11.952   0.001  1.00  9.58     0.028 C 
HETATM   49  C49 RAP A 108       5.717 -13.281  -0.678  1.00  8.29     0.003 C 
BRANCH  48  50
HETATM   50  C36 RAP A 108       6.169 -10.840  -0.844  1.00 10.31     0.003 C 
BRANCH  50  51
HETATM   51  C37 RAP A 108       5.402  -9.518  -0.935  1.00 22.90     0.003 C 
HETATM   52  C38 RAP A 108       3.923  -9.745  -0.601  1.00 14.17     0.032 C 
HETATM   53  C39 RAP A 108       3.069  -8.489  -0.784  1.00 34.20     0.142 C 
HETATM   54  C40 RAP A 108       3.692  -7.296   0.020  1.00 38.24     0.138 C 
HETATM   55  C41 RAP A 108       5.189  -7.078  -0.278  1.00 16.32     0.032 C 
HETATM   56  C42 RAP A 108       5.973  -8.370  -0.102  1.00 14.05     0.003 C 
BRANCH  53  57
HETATM   57  O12 RAP A 108       1.792  -8.799  -0.290  1.00 30.82    -0.352 OA
HETATM   58  C52 RAP A 108       0.752  -8.803  -1.208  1.00 28.14     0.174 C 
ENDBRANCH  53  57
BRANCH  54  59
HETATM   59  O13 RAP A 108       2.976  -6.101  -0.287  1.00 28.84    -0.382 OA
HETATM   60  HO3 RAP A 108       2.407  -5.863   0.456  1.00 13.32     0.210 HD
ENDBRANCH  54  59
ENDBRANCH  50  51
ENDBRANCH  48  50
ENDBRANCH  41  48
BRANCH  35  61
HETATM   61  O10 RAP A 108       8.677  -7.153   1.685  1.00 12.16    -0.378 OA
HETATM   62  HO1 RAP A 108       7.893  -7.666   1.928  1.00 13.32     0.211 HD
ENDBRANCH  35  61
BRANCH  16  63
HETATM   63  O6  RAP A 108       6.115 -19.123   1.736  1.00 14.16    -0.358 OA
HETATM   64  HO6 RAP A 108       6.488 -19.399   2.578  1.00 13.32     0.213 HD
ENDBRANCH  16  63
BRANCH  34  65
HETATM   65  O9  RAP A 108      10.536  -5.978  -0.294  1.00 23.09    -0.344 OA
HETATM   66  C51 RAP A 108       9.978  -6.320  -1.514  1.00 19.04     0.175 C 
ENDBRANCH  34  65
BRANCH  23  67
HETATM   67  O7  RAP A 108      11.082 -17.318   2.282  1.00 20.17    -0.350 OA
HETATM   68  C50 RAP A 108      11.891 -17.830   1.271  1.00 28.36     0.175 C 
ENDBRANCH  23  67
TORSDOF 9
ENDMDL
