MODEL 1
REMARK VINA RESULT:    -8.979      0.000      0.000
REMARK INTER + INTRA:         -14.701
REMARK INTER:                 -12.916
REMARK INTRA:                  -1.785
REMARK UNBOUND:                -1.785
REMARK  9 active torsions:
REMARK  status: ('A' for Active; 'I' for Inactive)
REMARK    1  A    between atoms: O6_12  and  C10_19 
REMARK    2  A    between atoms: O7_14  and  C16_29 
REMARK    3  A    between atoms: O9_18  and  C27_40 
REMARK    4  A    between atoms: O10_20  and  C28_41 
REMARK    5  A    between atoms: O12_24  and  C39_52 
REMARK    6  A    between atoms: O13_26  and  C40_53 
REMARK    7  A    between atoms: C34_47  and  C35_48 
REMARK    8  A    between atoms: C35_48  and  C36_49 
REMARK    9  A    between atoms: C36_49  and  C37_50 
ROOT
HETATM    1  C1  RAP A 108       4.528   8.773  13.059  1.00  5.98     0.292 C 
HETATM    2  O1  RAP A 108       4.235   9.693  14.102  1.00  9.08    -0.302 OA
HETATM    3  C2  RAP A 108       4.099   7.307  13.125  1.00  6.42     0.171 C 
HETATM    4  O2  RAP A 108       5.174   9.177  12.095  1.00 14.08    -0.262 OA
HETATM    5  C3  RAP A 108       3.530   6.841  11.793  1.00  5.50     0.033 C 
HETATM    6  O3  RAP A 108       4.698   6.043  15.411  1.00 10.38    -0.264 OA
HETATM    7  C4  RAP A 108       2.126   7.358  11.515  1.00  4.49     0.004 C 
HETATM    8  O4  RAP A 108       2.013   4.969  16.297  1.00 10.60    -0.281 OA
HETATM    9  C5  RAP A 108       1.238   6.964  12.681  1.00  4.19     0.024 C 
HETATM   10  O5  RAP A 108       1.526   8.001  17.053  1.00 10.76    -0.332 OA
HETATM   11  C6  RAP A 108       1.767   7.520  13.967  1.00  3.25     0.105 C 
HETATM   12  N7  RAP A 108       3.121   6.979  14.167  1.00  8.46    -0.307 N 
HETATM   13  C8  RAP A 108       3.511   6.381  15.303  1.00 10.06     0.297 C 
HETATM   14  O8  RAP A 108       3.137  18.523  10.692  1.00 18.31    -0.293 OA
HETATM   15  C9  RAP A 108       2.616   6.049  16.344  1.00 11.13     0.279 C 
HETATM   16  C10 RAP A 108       2.365   6.981  17.543  1.00 16.59     0.246 C 
HETATM   17  C11 RAP A 108       3.687   7.629  18.124  1.00 10.40     0.059 C 
HETATM   18  O11 RAP A 108       2.075  11.088  12.627  1.00  9.49    -0.296 OA
HETATM   19  C12 RAP A 108       3.364   8.781  19.103  1.00 12.17     0.008 C 
HETATM   20  C13 RAP A 108       2.358   9.740  18.482  1.00 12.80     0.030 C 
HETATM   21  C14 RAP A 108       1.143   9.041  17.880  1.00 10.37     0.121 C 
HETATM   22  C15 RAP A 108       0.396  10.004  16.974  1.00  5.94     0.064 C 
HETATM   23  C16 RAP A 108      -0.340  11.152  17.654  1.00  9.79     0.136 C 
HETATM   24  C17 RAP A 108      -1.009  12.055  16.640  1.00 15.52    -0.017 C 
HETATM   25  C18 RAP A 108      -0.566  13.299  16.511  1.00 14.38    -0.006 C 
HETATM   26  C19 RAP A 108      -1.092  14.282  15.554  1.00  9.73    -0.001 C 
HETATM   27  C20 RAP A 108      -0.599  15.512  15.557  1.00 10.26    -0.000 C 
HETATM   28  C21 RAP A 108      -1.019  16.507  14.553  1.00 11.40    -0.005 C 
HETATM   29  C22 RAP A 108      -0.394  17.662  14.414  1.00 17.77    -0.026 C 
HETATM   30  C23 RAP A 108      -0.709  18.672  13.333  1.00 15.64     0.022 C 
HETATM   31  C24 RAP A 108       0.587  18.923  12.581  1.00 14.68     0.012 C 
HETATM   32  C25 RAP A 108       1.325  17.710  12.047  1.00 11.87     0.061 C 
HETATM   33  C26 RAP A 108       2.784  18.045  11.767  1.00 11.65     0.180 C 
HETATM   34  C27 RAP A 108       3.782  17.746  12.881  1.00  8.13     0.203 C 
HETATM   35  C28 RAP A 108       4.274  16.263  12.897  1.00 10.80     0.163 C 
HETATM   36  C29 RAP A 108       3.295  15.296  13.591  1.00  9.60    -0.019 C 
HETATM   37  C30 RAP A 108       2.594  14.375  12.931  1.00  8.55    -0.025 C 
HETATM   38  C31 RAP A 108       1.620  13.315  13.466  1.00  8.43     0.079 C 
HETATM   39  C32 RAP A 108       2.306  11.949  13.481  1.00 10.69     0.157 C 
HETATM   40  C33 RAP A 108       3.335  11.739  14.586  1.00  6.51     0.095 C 
HETATM   41  C34 RAP A 108       4.580  11.034  14.087  1.00  9.62     0.132 C 
HETATM   42  C43 RAP A 108       4.690   6.626  18.770  1.00 11.25     0.005 C 
HETATM   43  C44 RAP A 108      -2.185  11.434  15.864  1.00 14.40     0.029 C 
HETATM   44  C45 RAP A 108      -1.243  19.965  13.933  1.00  9.23     0.005 C 
HETATM   45  C46 RAP A 108       0.647  17.139  10.799  1.00 15.99     0.008 C 
HETATM   46  C47 RAP A 108       3.184  15.492  15.091  1.00 14.60     0.029 C 
HETATM   47  C48 RAP A 108       0.388  13.267  12.548  1.00  9.37     0.013 C 
ENDROOT
BRANCH  41  48
HETATM   48  C35 RAP A 108       5.872  11.145  14.920  1.00  9.58     0.028 C 
HETATM   49  C49 RAP A 108       5.624  10.933  16.386  1.00  8.29     0.003 C 
BRANCH  48  50
HETATM   50  C36 RAP A 108       6.595  12.471  14.687  1.00 10.31     0.003 C 
BRANCH  50  51
HETATM   51  C37 RAP A 108       7.977  12.411  14.032  1.00 22.90     0.003 C 
HETATM   52  C38 RAP A 108       9.067  12.654  15.083  1.00 14.17     0.032 C 
HETATM   53  C39 RAP A 108      10.471  12.725  14.481  1.00 34.20     0.142 C 
HETATM   54  C40 RAP A 108      10.746  11.450  13.611  1.00 38.24     0.138 C 
HETATM   55  C41 RAP A 108       9.640  11.172  12.573  1.00 16.32     0.032 C 
HETATM   56  C42 RAP A 108       8.270  11.141  13.234  1.00 14.05     0.003 C 
BRANCH  53  57
HETATM   57  O12 RAP A 108      11.366  12.783  15.562  1.00 30.82    -0.352 OA
HETATM   58  C52 RAP A 108      10.960  12.179  16.741  1.00 28.14     0.174 C 
ENDBRANCH  53  57
BRANCH  54  59
HETATM   59  O13 RAP A 108      11.992  11.606  12.934  1.00 28.84    -0.382 OA
HETATM   60  HO3 RAP A 108      12.714  11.326  13.512  1.00 13.32     0.210 HD
ENDBRANCH  54  59
ENDBRANCH  50  51
ENDBRANCH  48  50
ENDBRANCH  41  48
BRANCH  35  61
HETATM   61  O10 RAP A 108       4.472  15.860  11.535  1.00 12.16    -0.378 OA
HETATM   62  HO1 RAP A 108       3.738  16.142  10.970  1.00 13.32     0.211 HD
ENDBRANCH  35  61
BRANCH  16  63
HETATM   63  O6  RAP A 108       1.720   6.234  18.579  1.00 14.16    -0.358 OA
HETATM   64  HO6 RAP A 108       1.621   6.809  19.344  1.00 13.32     0.213 HD
ENDBRANCH  16  63
BRANCH  34  65
HETATM   65  O9  RAP A 108       4.919  18.546  12.692  1.00 23.09    -0.344 OA
HETATM   66  C51 RAP A 108       5.974  18.298  13.554  1.00 19.04     0.175 C 
ENDBRANCH  34  65
BRANCH  23  67
HETATM   67  O7  RAP A 108      -1.307  10.600  18.493  1.00 20.17    -0.350 OA
HETATM   68  C50 RAP A 108      -1.508  11.246  19.709  1.00 28.36     0.175 C 
ENDBRANCH  23  67
TORSDOF 9
ENDMDL
MODEL 2
REMARK VINA RESULT:    -7.847      3.240      8.155
REMARK INTER + INTRA:         -13.072
REMARK INTER:                 -11.319
REMARK INTRA:                  -1.753
REMARK UNBOUND:                -1.785
REMARK  9 active torsions:
REMARK  status: ('A' for Active; 'I' for Inactive)
REMARK    1  A    between atoms: O6_12  and  C10_19 
REMARK    2  A    between atoms: O7_14  and  C16_29 
REMARK    3  A    between atoms: O9_18  and  C27_40 
REMARK    4  A    between atoms: O10_20  and  C28_41 
REMARK    5  A    between atoms: O12_24  and  C39_52 
REMARK    6  A    between atoms: O13_26  and  C40_53 
REMARK    7  A    between atoms: C34_47  and  C35_48 
REMARK    8  A    between atoms: C35_48  and  C36_49 
REMARK    9  A    between atoms: C36_49  and  C37_50 
ROOT
HETATM    1  C1  RAP A 108       1.149   8.529  18.089  1.00  5.98     0.292 C 
HETATM    2  O1  RAP A 108       1.186   9.529  17.081  1.00  9.08    -0.302 OA
HETATM    3  C2  RAP A 108       2.005   7.265  18.011  1.00  6.42     0.171 C 
HETATM    4  O2  RAP A 108       0.378   8.687  19.033  1.00 14.08    -0.262 OA
HETATM    5  C3  RAP A 108       2.641   6.948  19.356  1.00  5.50     0.033 C 
HETATM    6  O3  RAP A 108       1.899   5.958  15.674  1.00 10.38    -0.264 OA
HETATM    7  C4  RAP A 108       3.812   7.855  19.707  1.00  4.49     0.004 C 
HETATM    8  O4  RAP A 108       4.812   5.776  14.883  1.00 10.60    -0.281 OA
HETATM    9  C5  RAP A 108       4.818   7.788  18.572  1.00  4.19     0.024 C 
HETATM   10  O5  RAP A 108       4.382   8.837  14.215  1.00 10.76    -0.332 OA
HETATM   11  C6  RAP A 108       4.191   8.202  17.277  1.00  3.25     0.105 C 
HETATM   12  N7  RAP A 108       3.073   7.283  17.006  1.00  8.46    -0.307 N 
HETATM   13  C8  RAP A 108       2.922   6.634  15.841  1.00 10.06     0.297 C 
HETATM   14  O8  RAP A 108      -0.570  18.157  20.726  1.00 18.31    -0.293 OA
HETATM   15  C9  RAP A 108       3.912   6.624  14.833  1.00 11.13     0.279 C 
HETATM   16  C10 RAP A 108       3.911   7.628  13.667  1.00 16.59     0.246 C 
HETATM   17  C11 RAP A 108       2.475   7.865  13.042  1.00 10.40     0.059 C 
HETATM   18  O11 RAP A 108       2.767  11.462  18.679  1.00  9.49    -0.296 OA
HETATM   19  C12 RAP A 108       2.468   9.094  12.104  1.00 12.17     0.008 C 
HETATM   20  C13 RAP A 108       3.113  10.291  12.789  1.00 12.80     0.030 C 
HETATM   21  C14 RAP A 108       4.461   9.972  13.428  1.00 10.37     0.121 C 
HETATM   22  C15 RAP A 108       4.847  11.085  14.387  1.00  5.94     0.064 C 
HETATM   23  C16 RAP A 108       5.224  12.424  13.765  1.00  9.79     0.136 C 
HETATM   24  C17 RAP A 108       5.551  13.452  14.826  1.00 15.52    -0.017 C 
HETATM   25  C18 RAP A 108       4.747  14.498  14.962  1.00 14.38    -0.006 C 
HETATM   26  C19 RAP A 108       4.916  15.561  15.963  1.00  9.73    -0.001 C 
HETATM   27  C20 RAP A 108       4.072  16.584  15.965  1.00 10.26    -0.000 C 
HETATM   28  C21 RAP A 108       4.135  17.625  17.008  1.00 11.40    -0.005 C 
HETATM   29  C22 RAP A 108       3.185  18.531  17.144  1.00 17.77    -0.026 C 
HETATM   30  C23 RAP A 108       3.140  19.552  18.259  1.00 15.64     0.022 C 
HETATM   31  C24 RAP A 108       1.804  19.374  18.959  1.00 14.68     0.012 C 
HETATM   32  C25 RAP A 108       1.450  17.977  19.434  1.00 11.87     0.061 C 
HETATM   33  C26 RAP A 108      -0.051  17.845  19.657  1.00 11.65     0.180 C 
HETATM   34  C27 RAP A 108      -0.871  17.296  18.494  1.00  8.13     0.203 C 
HETATM   35  C28 RAP A 108      -0.888  15.735  18.425  1.00 10.80     0.163 C 
HETATM   36  C29 RAP A 108       0.362  15.134  17.754  1.00  9.60    -0.019 C 
HETATM   37  C30 RAP A 108       1.285  14.446  18.424  1.00  8.55    -0.025 C 
HETATM   38  C31 RAP A 108       2.554  13.750  17.909  1.00  8.43     0.079 C 
HETATM   39  C32 RAP A 108       2.316  12.241  17.834  1.00 10.69     0.157 C 
HETATM   40  C33 RAP A 108       1.438  11.767  16.681  1.00  6.51     0.095 C 
HETATM   41  C34 RAP A 108       0.450  10.702  17.110  1.00  9.62     0.132 C 
HETATM   42  C43 RAP A 108       1.848   6.629  12.332  1.00 11.25     0.005 C 
HETATM   43  C44 RAP A 108       6.832  13.190  15.639  1.00 14.40     0.029 C 
HETATM   44  C45 RAP A 108       3.277  20.966  17.712  1.00  9.23     0.005 C 
HETATM   45  C46 RAP A 108       2.225  17.596  20.698  1.00 15.99     0.008 C 
HETATM   46  C47 RAP A 108       0.461  15.405  16.265  1.00 14.60     0.029 C 
HETATM   47  C48 RAP A 108       3.709  14.045  18.878  1.00  9.37     0.013 C 
ENDROOT
BRANCH  41  48
HETATM   48  C35 RAP A 108      -0.785  10.446  16.223  1.00  9.58     0.028 C 
HETATM   49  C49 RAP A 108      -0.450   9.641  15.000  1.00  8.29     0.003 C 
BRANCH  48  50
HETATM   50  C36 RAP A 108      -1.493  11.742  15.833  1.00 10.31     0.003 C 
BRANCH  50  51
HETATM   51  C37 RAP A 108      -2.176  11.784  14.464  1.00 22.90     0.003 C 
HETATM   52  C38 RAP A 108      -3.677  11.518  14.617  1.00 14.17     0.032 C 
HETATM   53  C39 RAP A 108      -4.408  11.429  13.276  1.00 34.20     0.142 C 
HETATM   54  C40 RAP A 108      -4.107  12.705  12.416  1.00 38.24     0.138 C 
HETATM   55  C41 RAP A 108      -2.601  13.006  12.282  1.00 16.32     0.032 C 
HETATM   56  C42 RAP A 108      -1.933  13.055  13.649  1.00 14.05     0.003 C 
BRANCH  53  57
HETATM   57  O12 RAP A 108      -5.779  11.351  13.573  1.00 30.82    -0.352 OA
HETATM   58  C52 RAP A 108      -6.124  10.755  14.776  1.00 28.14     0.174 C 
ENDBRANCH  53  57
BRANCH  54  59
HETATM   59  O13 RAP A 108      -4.666  12.533  11.115  1.00 28.84    -0.382 OA
HETATM   60  HO3 RAP A 108      -4.409  13.273  10.550  1.00 13.32     0.210 HD
ENDBRANCH  54  59
ENDBRANCH  50  51
ENDBRANCH  48  50
ENDBRANCH  41  48
BRANCH  35  61
HETATM   61  O10 RAP A 108      -1.003  15.245  19.767  1.00 12.16    -0.378 OA
HETATM   62  HO1 RAP A 108      -1.922  15.039  19.993  1.00 13.32     0.211 HD
ENDBRANCH  35  61
BRANCH  16  63
HETATM   63  O6  RAP A 108       4.788   7.147  12.644  1.00 14.16    -0.358 OA
HETATM   64  HO6 RAP A 108       4.560   7.592  11.823  1.00 13.32     0.213 HD
ENDBRANCH  16  63
BRANCH  34  65
HETATM   65  O9  RAP A 108      -2.203  17.708  18.651  1.00 23.09    -0.344 OA
HETATM   66  C51 RAP A 108      -3.082  17.271  17.674  1.00 19.04     0.175 C 
ENDBRANCH  34  65
BRANCH  23  67
HETATM   67  O7  RAP A 108       6.341  12.219  12.957  1.00 20.17    -0.350 OA
HETATM   68  C50 RAP A 108       6.819  13.333  12.273  1.00 28.36     0.175 C 
ENDBRANCH  23  67
TORSDOF 9
ENDMDL
MODEL 3
REMARK VINA RESULT:    -7.416      3.169      8.186
REMARK INTER + INTRA:         -12.452
REMARK INTER:                  -9.806
REMARK INTRA:                  -2.646
REMARK UNBOUND:                -1.785
REMARK  9 active torsions:
REMARK  status: ('A' for Active; 'I' for Inactive)
REMARK    1  A    between atoms: O6_12  and  C10_19 
REMARK    2  A    between atoms: O7_14  and  C16_29 
REMARK    3  A    between atoms: O9_18  and  C27_40 
REMARK    4  A    between atoms: O10_20  and  C28_41 
REMARK    5  A    between atoms: O12_24  and  C39_52 
REMARK    6  A    between atoms: O13_26  and  C40_53 
REMARK    7  A    between atoms: C34_47  and  C35_48 
REMARK    8  A    between atoms: C35_48  and  C36_49 
REMARK    9  A    between atoms: C36_49  and  C37_50 
ROOT
HETATM    1  C1  RAP A 108       1.042   8.681  18.069  1.00  5.98     0.292 C 
HETATM    2  O1  RAP A 108       1.119   9.702  17.082  1.00  9.08    -0.302 OA
HETATM    3  C2  RAP A 108       1.856   7.392  17.969  1.00  6.42     0.171 C 
HETATM    4  O2  RAP A 108       0.268   8.844  19.009  1.00 14.08    -0.262 OA
HETATM    5  C3  RAP A 108       2.470   7.026  19.312  1.00  5.50     0.033 C 
HETATM    6  O3  RAP A 108       1.728   6.139  15.604  1.00 10.38    -0.264 OA
HETATM    7  C4  RAP A 108       3.667   7.887  19.692  1.00  4.49     0.004 C 
HETATM    8  O4  RAP A 108       4.640   5.880  14.832  1.00 10.60    -0.281 OA
HETATM    9  C5  RAP A 108       4.680   7.811  18.564  1.00  4.19     0.024 C 
HETATM   10  O5  RAP A 108       4.316   8.967  14.227  1.00 10.76    -0.332 OA
HETATM   11  C6  RAP A 108       4.078   8.272  17.273  1.00  3.25     0.105 C 
HETATM   12  N7  RAP A 108       2.933   7.397  16.973  1.00  8.46    -0.307 N 
HETATM   13  C8  RAP A 108       2.771   6.778  15.794  1.00 10.06     0.297 C 
HETATM   14  O8  RAP A 108      -0.385  18.303  20.900  1.00 18.31    -0.293 OA
HETATM   15  C9  RAP A 108       3.768   6.757  14.794  1.00 11.13     0.279 C 
HETATM   16  C10 RAP A 108       3.810   7.786  13.649  1.00 16.59     0.246 C 
HETATM   17  C11 RAP A 108       2.388   8.083  13.019  1.00 10.40     0.059 C 
HETATM   18  O11 RAP A 108       2.749  11.547  18.734  1.00  9.49    -0.296 OA
HETATM   19  C12 RAP A 108       2.429   9.331  12.107  1.00 12.17     0.008 C 
HETATM   20  C13 RAP A 108       3.107  10.491  12.823  1.00 12.80     0.030 C 
HETATM   21  C14 RAP A 108       4.438  10.115  13.466  1.00 10.37     0.121 C 
HETATM   22  C15 RAP A 108       4.853  11.193  14.451  1.00  5.94     0.064 C 
HETATM   23  C16 RAP A 108       5.278  12.532  13.861  1.00  9.79     0.136 C 
HETATM   24  C17 RAP A 108       5.630  13.526  14.947  1.00 15.52    -0.017 C 
HETATM   25  C18 RAP A 108       4.859  14.595  15.100  1.00 14.38    -0.006 C 
HETATM   26  C19 RAP A 108       5.053  15.630  16.125  1.00  9.73    -0.001 C 
HETATM   27  C20 RAP A 108       4.244  16.680  16.142  1.00 10.26    -0.000 C 
HETATM   28  C21 RAP A 108       4.332  17.696  17.208  1.00 11.40    -0.005 C 
HETATM   29  C22 RAP A 108       3.411  18.629  17.356  1.00 17.77    -0.026 C 
HETATM   30  C23 RAP A 108       3.390  19.628  18.493  1.00 15.64     0.022 C 
HETATM   31  C24 RAP A 108       2.042  19.478  19.178  1.00 14.68     0.012 C 
HETATM   32  C25 RAP A 108       1.639  18.084  19.620  1.00 11.87     0.061 C 
HETATM   33  C26 RAP A 108       0.133  17.997  19.828  1.00 11.65     0.180 C 
HETATM   34  C27 RAP A 108      -0.695  17.500  18.647  1.00  8.13     0.203 C 
HETATM   35  C28 RAP A 108      -0.762  15.942  18.544  1.00 10.80     0.163 C 
HETATM   36  C29 RAP A 108       0.473  15.315  17.870  1.00  9.60    -0.019 C 
HETATM   37  C30 RAP A 108       1.368  14.582  18.532  1.00  8.55    -0.025 C 
HETATM   38  C31 RAP A 108       2.617  13.856  18.012  1.00  8.43     0.079 C 
HETATM   39  C32 RAP A 108       2.331  12.358  17.903  1.00 10.69     0.157 C 
HETATM   40  C33 RAP A 108       1.448  11.938  16.733  1.00  6.51     0.095 C 
HETATM   41  C34 RAP A 108       0.422  10.897  17.131  1.00  9.62     0.132 C 
HETATM   42  C43 RAP A 108       1.727   6.883  12.277  1.00 11.25     0.005 C 
HETATM   43  C44 RAP A 108       6.894  13.205  15.764  1.00 14.40     0.029 C 
HETATM   44  C45 RAP A 108       3.577  21.047  17.977  1.00  9.23     0.005 C 
HETATM   45  C46 RAP A 108       2.390  17.651  20.881  1.00 15.99     0.008 C 
HETATM   46  C47 RAP A 108       0.593  15.614  16.388  1.00 14.60     0.029 C 
HETATM   47  C48 RAP A 108       3.773  14.092  18.997  1.00  9.37     0.013 C 
ENDROOT
BRANCH  41  48
HETATM   48  C35 RAP A 108      -0.813  10.700  16.229  1.00  9.58     0.028 C 
HETATM   49  C49 RAP A 108      -0.502   9.884  15.008  1.00  8.29     0.003 C 
BRANCH  48  50
HETATM   50  C36 RAP A 108      -1.456  12.029  15.835  1.00 10.31     0.003 C 
BRANCH  50  51
HETATM   51  C37 RAP A 108      -2.624  12.526  16.690  1.00 22.90     0.003 C 
HETATM   52  C38 RAP A 108      -2.214  12.563  18.167  1.00 14.17     0.032 C 
HETATM   53  C39 RAP A 108      -3.369  12.938  19.098  1.00 34.20     0.142 C 
HETATM   54  C40 RAP A 108      -4.027  14.279  18.621  1.00 38.24     0.138 C 
HETATM   55  C41 RAP A 108      -4.412  14.270  17.128  1.00 16.32     0.032 C 
HETATM   56  C42 RAP A 108      -3.227  13.863  16.263  1.00 14.05     0.003 C 
BRANCH  53  57
HETATM   57  O12 RAP A 108      -2.815  13.093  20.379  1.00 30.82    -0.352 OA
HETATM   58  C52 RAP A 108      -1.926  12.116  20.797  1.00 28.14     0.174 C 
ENDBRANCH  53  57
BRANCH  54  59
HETATM   59  O13 RAP A 108      -5.194  14.530  19.402  1.00 28.84    -0.382 OA
HETATM   60  HO3 RAP A 108      -4.958  15.044  20.184  1.00 13.32     0.210 HD
ENDBRANCH  54  59
ENDBRANCH  50  51
ENDBRANCH  48  50
ENDBRANCH  41  48
BRANCH  35  61
HETATM   61  O10 RAP A 108      -0.904  15.427  19.875  1.00 12.16    -0.378 OA
HETATM   62  HO1 RAP A 108      -1.791  15.592  20.227  1.00 13.32     0.211 HD
ENDBRANCH  35  61
BRANCH  16  63
HETATM   63  O6  RAP A 108       4.680   7.298  12.623  1.00 14.16    -0.358 OA
HETATM   64  HO6 RAP A 108       4.138   7.037  11.873  1.00 13.32     0.213 HD
ENDBRANCH  16  63
BRANCH  34  65
HETATM   65  O9  RAP A 108      -2.014  17.951  18.802  1.00 23.09    -0.344 OA
HETATM   66  C51 RAP A 108      -2.855  17.718  17.728  1.00 19.04     0.175 C 
ENDBRANCH  34  65
BRANCH  23  67
HETATM   67  O7  RAP A 108       6.395  12.308  13.059  1.00 20.17    -0.350 OA
HETATM   68  C50 RAP A 108       6.834  13.389  12.299  1.00 28.36     0.175 C 
ENDBRANCH  23  67
TORSDOF 9
ENDMDL
MODEL 4
REMARK VINA RESULT:    -7.134      3.858      8.417
REMARK INTER + INTRA:         -12.047
REMARK INTER:                 -10.151
REMARK INTRA:                  -1.895
REMARK UNBOUND:                -1.785
REMARK  9 active torsions:
REMARK  status: ('A' for Active; 'I' for Inactive)
REMARK    1  A    between atoms: O6_12  and  C10_19 
REMARK    2  A    between atoms: O7_14  and  C16_29 
REMARK    3  A    between atoms: O9_18  and  C27_40 
REMARK    4  A    between atoms: O10_20  and  C28_41 
REMARK    5  A    between atoms: O12_24  and  C39_52 
REMARK    6  A    between atoms: O13_26  and  C40_53 
REMARK    7  A    between atoms: C34_47  and  C35_48 
REMARK    8  A    between atoms: C35_48  and  C36_49 
REMARK    9  A    between atoms: C36_49  and  C37_50 
ROOT
HETATM    1  C1  RAP A 108      -2.807   9.459  20.168  1.00  5.98     0.292 C 
HETATM    2  O1  RAP A 108      -1.433   9.749  20.387  1.00  9.08    -0.302 OA
HETATM    3  C2  RAP A 108      -3.892   9.863  21.165  1.00  6.42     0.171 C 
HETATM    4  O2  RAP A 108      -3.111   8.836  19.153  1.00 14.08    -0.262 OA
HETATM    5  C3  RAP A 108      -5.103  10.446  20.452  1.00  5.50     0.033 C 
HETATM    6  O3  RAP A 108      -3.400   9.208  23.716  1.00 10.38    -0.264 OA
HETATM    7  C4  RAP A 108      -4.886  11.863  19.940  1.00  4.49     0.004 C 
HETATM    8  O4  RAP A 108      -3.663  11.861  25.145  1.00 10.60    -0.281 OA
HETATM    9  C5  RAP A 108      -4.445  12.726  21.108  1.00  4.19     0.024 C 
HETATM   10  O5  RAP A 108      -0.850  12.382  23.798  1.00 10.76    -0.332 OA
HETATM   11  C6  RAP A 108      -3.194  12.185  21.728  1.00  3.25     0.105 C 
HETATM   12  N7  RAP A 108      -3.479  10.820  22.198  1.00  8.46    -0.307 N 
HETATM   13  C8  RAP A 108      -3.211  10.401  23.445  1.00 10.06     0.297 C 
HETATM   14  O8  RAP A 108       3.171  11.041  12.144  1.00 18.31    -0.293 OA
HETATM   15  C9  RAP A 108      -2.802  11.274  24.477  1.00 11.13     0.279 C 
HETATM   16  C10 RAP A 108      -1.319  11.520  24.808  1.00 16.59     0.246 C 
HETATM   17  C11 RAP A 108      -0.447  10.199  24.811  1.00 10.40     0.059 C 
HETATM   18  O11 RAP A 108      -1.308  11.955  18.410  1.00  9.49    -0.296 OA
HETATM   19  C12 RAP A 108       1.064  10.525  24.833  1.00 12.17     0.008 C 
HETATM   20  C13 RAP A 108       1.402  11.556  23.766  1.00 12.80     0.030 C 
HETATM   21  C14 RAP A 108       0.478  12.769  23.777  1.00 10.37     0.121 C 
HETATM   22  C15 RAP A 108       0.637  13.546  22.482  1.00  5.94     0.064 C 
HETATM   23  C16 RAP A 108       1.953  14.288  22.287  1.00  9.79     0.136 C 
HETATM   24  C17 RAP A 108       1.998  14.988  20.945  1.00 15.52    -0.017 C 
HETATM   25  C18 RAP A 108       2.872  14.566  20.041  1.00 14.38    -0.006 C 
HETATM   26  C19 RAP A 108       3.014  15.123  18.688  1.00  9.73    -0.001 C 
HETATM   27  C20 RAP A 108       3.962  14.650  17.892  1.00 10.26    -0.000 C 
HETATM   28  C21 RAP A 108       4.084  15.102  16.494  1.00 11.40    -0.005 C 
HETATM   29  C22 RAP A 108       4.884  14.498  15.635  1.00 17.77    -0.026 C 
HETATM   30  C23 RAP A 108       4.969  14.846  14.165  1.00 15.64     0.022 C 
HETATM   31  C24 RAP A 108       4.683  13.567  13.398  1.00 14.68     0.012 C 
HETATM   32  C25 RAP A 108       3.410  12.818  13.747  1.00 11.87     0.061 C 
HETATM   33  C26 RAP A 108       3.491  11.369  13.284  1.00 11.65     0.180 C 
HETATM   34  C27 RAP A 108       3.975  10.349  14.309  1.00  8.13     0.203 C 
HETATM   35  C28 RAP A 108       2.846   9.834  15.258  1.00 10.80     0.163 C 
HETATM   36  C29 RAP A 108       2.545  10.785  16.432  1.00  9.60    -0.019 C 
HETATM   37  C30 RAP A 108       1.414  11.482  16.530  1.00  8.55    -0.025 C 
HETATM   38  C31 RAP A 108       0.940  12.431  17.640  1.00  8.43     0.079 C 
HETATM   39  C32 RAP A 108      -0.099  11.723  18.510  1.00 10.69     0.157 C 
HETATM   40  C33 RAP A 108       0.448  10.673  19.470  1.00  6.51     0.095 C 
HETATM   41  C34 RAP A 108      -0.411   9.426  19.510  1.00  9.62     0.132 C 
HETATM   42  C43 RAP A 108      -0.803   9.170  25.925  1.00 11.25     0.005 C 
HETATM   43  C44 RAP A 108       1.022  16.166  20.773  1.00 14.40     0.029 C 
HETATM   44  C45 RAP A 108       6.345  15.390  13.811  1.00  9.23     0.005 C 
HETATM   45  C46 RAP A 108       2.172  13.507  13.168  1.00 15.99     0.008 C 
HETATM   46  C47 RAP A 108       3.655  10.875  17.462  1.00 14.60     0.029 C 
HETATM   47  C48 RAP A 108       0.314  13.677  16.995  1.00  9.37     0.013 C 
ENDROOT
BRANCH  41  48
HETATM   48  C35 RAP A 108       0.210   8.122  20.050  1.00  9.58     0.028 C 
HETATM   49  C49 RAP A 108      -0.383   7.713  21.367  1.00  8.29     0.003 C 
BRANCH  48  50
HETATM   50  C36 RAP A 108       1.732   8.209  20.153  1.00 10.31     0.003 C 
BRANCH  50  51
HETATM   51  C37 RAP A 108       2.551   7.338  19.198  1.00 22.90     0.003 C 
HETATM   52  C38 RAP A 108       2.000   7.460  17.772  1.00 14.17     0.032 C 
HETATM   53  C39 RAP A 108       2.697   6.526  16.781  1.00 34.20     0.142 C 
HETATM   54  C40 RAP A 108       4.249   6.734  16.847  1.00 38.24     0.138 C 
HETATM   55  C41 RAP A 108       4.812   6.649  18.280  1.00 16.32     0.032 C 
HETATM   56  C42 RAP A 108       4.059   7.583  19.217  1.00 14.05     0.003 C 
BRANCH  53  57
HETATM   57  O12 RAP A 108       2.211   6.863  15.506  1.00 30.82    -0.352 OA
HETATM   58  C52 RAP A 108       1.981   5.815  14.629  1.00 28.14     0.174 C 
ENDBRANCH  53  57
BRANCH  54  59
HETATM   59  O13 RAP A 108       4.888   5.751  16.036  1.00 28.84    -0.382 OA
HETATM   60  HO3 RAP A 108       5.059   4.958  16.560  1.00 13.32     0.210 HD
ENDBRANCH  54  59
ENDBRANCH  50  51
ENDBRANCH  48  50
ENDBRANCH  41  48
BRANCH  35  61
HETATM   61  O10 RAP A 108       1.665   9.651  14.466  1.00 12.16    -0.378 OA
HETATM   62  HO1 RAP A 108       1.838   9.819  13.528  1.00 13.32     0.211 HD
ENDBRANCH  35  61
BRANCH  16  63
HETATM   63  O6  RAP A 108      -1.231  12.137  26.096  1.00 14.16    -0.358 OA
HETATM   64  HO6 RAP A 108      -1.243  13.090  25.972  1.00 13.32     0.213 HD
ENDBRANCH  16  63
BRANCH  34  65
HETATM   65  O9  RAP A 108       4.471   9.228  13.627  1.00 23.09    -0.344 OA
HETATM   66  C51 RAP A 108       5.617   9.441  12.880  1.00 19.04     0.175 C 
ENDBRANCH  34  65
BRANCH  23  67
HETATM   67  O7  RAP A 108       2.064  15.232  23.306  1.00 20.17    -0.350 OA
HETATM   68  C50 RAP A 108       3.356  15.534  23.728  1.00 28.36     0.175 C 
ENDBRANCH  23  67
TORSDOF 9
ENDMDL
MODEL 5
REMARK VINA RESULT:    -7.083      5.515      9.720
REMARK INTER + INTRA:         -11.975
REMARK INTER:                 -10.149
REMARK INTRA:                  -1.826
REMARK UNBOUND:                -1.785
REMARK  9 active torsions:
REMARK  status: ('A' for Active; 'I' for Inactive)
REMARK    1  A    between atoms: O6_12  and  C10_19 
REMARK    2  A    between atoms: O7_14  and  C16_29 
REMARK    3  A    between atoms: O9_18  and  C27_40 
REMARK    4  A    between atoms: O10_20  and  C28_41 
REMARK    5  A    between atoms: O12_24  and  C39_52 
REMARK    6  A    between atoms: O13_26  and  C40_53 
REMARK    7  A    between atoms: C34_47  and  C35_48 
REMARK    8  A    between atoms: C35_48  and  C36_49 
REMARK    9  A    between atoms: C36_49  and  C37_50 
ROOT
HETATM    1  C1  RAP A 108      -2.347   6.334  23.154  1.00  5.98     0.292 C 
HETATM    2  O1  RAP A 108      -1.569   7.480  22.835  1.00  9.08    -0.302 OA
HETATM    3  C2  RAP A 108      -2.782   6.020  24.585  1.00  6.42     0.171 C 
HETATM    4  O2  RAP A 108      -2.646   5.566  22.242  1.00 14.08    -0.262 OA
HETATM    5  C3  RAP A 108      -4.238   5.581  24.632  1.00  5.50     0.033 C 
HETATM    6  O3  RAP A 108      -0.831   6.117  26.419  1.00 10.38    -0.264 OA
HETATM    7  C4  RAP A 108      -5.226   6.726  24.462  1.00  4.49     0.004 C 
HETATM    8  O4  RAP A 108      -1.932   8.062  28.456  1.00 10.60    -0.281 OA
HETATM    9  C5  RAP A 108      -4.916   7.779  25.511  1.00  4.19     0.024 C 
HETATM   10  O5  RAP A 108      -1.169  10.171  26.227  1.00 10.76    -0.332 OA
HETATM   11  C6  RAP A 108      -3.506   8.266  25.377  1.00  3.25     0.105 C 
HETATM   12  N7  RAP A 108      -2.612   7.109  25.553  1.00  8.46    -0.307 N 
HETATM   13  C8  RAP A 108      -1.582   7.101  26.412  1.00 10.06     0.297 C 
HETATM   14  O8  RAP A 108      -3.531  10.642  14.062  1.00 18.31    -0.293 OA
HETATM   15  C9  RAP A 108      -1.363   8.126  27.359  1.00 11.13     0.279 C 
HETATM   16  C10 RAP A 108      -0.436   9.323  27.079  1.00 16.59     0.246 C 
HETATM   17  C11 RAP A 108       0.919   8.916  26.369  1.00 10.40     0.059 C 
HETATM   18  O11 RAP A 108      -3.814   9.002  21.638  1.00  9.49    -0.296 OA
HETATM   19  C12 RAP A 108       1.665  10.158  25.830  1.00 12.17     0.008 C 
HETATM   20  C13 RAP A 108       0.719  11.040  25.027  1.00 12.80     0.030 C 
HETATM   21  C14 RAP A 108      -0.595  11.334  25.744  1.00 10.37     0.121 C 
HETATM   22  C15 RAP A 108      -1.606  11.885  24.754  1.00  5.94     0.064 C 
HETATM   23  C16 RAP A 108      -1.344  13.287  24.217  1.00  9.79     0.136 C 
HETATM   24  C17 RAP A 108      -2.402  13.700  23.216  1.00 15.52    -0.017 C 
HETATM   25  C18 RAP A 108      -2.041  13.871  21.951  1.00 14.38    -0.006 C 
HETATM   26  C19 RAP A 108      -2.955  14.242  20.861  1.00  9.73    -0.001 C 
HETATM   27  C20 RAP A 108      -2.464  14.434  19.645  1.00 10.26    -0.000 C 
HETATM   28  C21 RAP A 108      -3.348  14.709  18.498  1.00 11.40    -0.005 C 
HETATM   29  C22 RAP A 108      -2.900  14.700  17.256  1.00 17.77    -0.026 C 
HETATM   30  C23 RAP A 108      -3.778  14.866  16.035  1.00 15.64     0.022 C 
HETATM   31  C24 RAP A 108      -3.541  13.647  15.160  1.00 14.68     0.012 C 
HETATM   32  C25 RAP A 108      -3.697  12.284  15.810  1.00 11.87     0.061 C 
HETATM   33  C26 RAP A 108      -2.980  11.213  15.000  1.00 11.65     0.180 C 
HETATM   34  C27 RAP A 108      -1.552  10.878  15.419  1.00  8.13     0.203 C 
HETATM   35  C28 RAP A 108      -1.471   9.846  16.589  1.00 10.80     0.163 C 
HETATM   36  C29 RAP A 108      -1.672  10.475  17.981  1.00  9.60    -0.019 C 
HETATM   37  C30 RAP A 108      -2.754  10.256  18.728  1.00  8.55    -0.025 C 
HETATM   38  C31 RAP A 108      -3.091  10.762  20.138  1.00  8.43     0.079 C 
HETATM   39  C32 RAP A 108      -2.874   9.638  21.151  1.00 10.69     0.157 C 
HETATM   40  C33 RAP A 108      -1.420   9.316  21.479  1.00  6.51     0.095 C 
HETATM   41  C34 RAP A 108      -1.164   7.825  21.556  1.00  9.62     0.132 C 
HETATM   42  C43 RAP A 108       1.875   8.029  27.221  1.00 11.25     0.005 C 
HETATM   43  C44 RAP A 108      -3.815  13.914  23.786  1.00 14.40     0.029 C 
HETATM   44  C45 RAP A 108      -3.434  16.144  15.284  1.00  9.23     0.005 C 
HETATM   45  C46 RAP A 108      -5.170  11.921  16.013  1.00 15.99     0.008 C 
HETATM   46  C47 RAP A 108      -0.538  11.380  18.426  1.00 14.60     0.029 C 
HETATM   47  C48 RAP A 108      -4.561  11.210  20.166  1.00  9.37     0.013 C 
ENDROOT
BRANCH  41  48
HETATM   48  C35 RAP A 108       0.286   7.320  21.423  1.00  9.58     0.028 C 
HETATM   49  C49 RAP A 108       1.007   7.308  22.740  1.00  8.29     0.003 C 
BRANCH  48  50
HETATM   50  C36 RAP A 108       1.079   8.114  20.387  1.00 10.31     0.003 C 
BRANCH  50  51
HETATM   51  C37 RAP A 108       2.014   7.328  19.465  1.00 22.90     0.003 C 
HETATM   52  C38 RAP A 108       1.615   7.546  18.001  1.00 14.17     0.032 C 
HETATM   53  C39 RAP A 108       2.433   6.698  17.026  1.00 34.20     0.142 C 
HETATM   54  C40 RAP A 108       3.965   6.925  17.273  1.00 38.24     0.138 C 
HETATM   55  C41 RAP A 108       4.376   6.744  18.748  1.00 16.32     0.032 C 
HETATM   56  C42 RAP A 108       3.506   7.594  19.663  1.00 14.05     0.003 C 
BRANCH  53  57
HETATM   57  O12 RAP A 108       2.077   7.119  15.734  1.00 30.82    -0.352 OA
HETATM   58  C52 RAP A 108       1.986   6.138  14.760  1.00 28.14     0.174 C 
ENDBRANCH  53  57
BRANCH  54  59
HETATM   59  O13 RAP A 108       4.708   6.013  16.466  1.00 28.84    -0.382 OA
HETATM   60  HO3 RAP A 108       5.093   6.482  15.715  1.00 13.32     0.210 HD
ENDBRANCH  54  59
ENDBRANCH  50  51
ENDBRANCH  48  50
ENDBRANCH  41  48
BRANCH  35  61
HETATM   61  O10 RAP A 108      -2.475   8.850  16.356  1.00 12.16    -0.378 OA
HETATM   62  HO1 RAP A 108      -2.864   8.536  17.186  1.00 13.32     0.211 HD
ENDBRANCH  35  61
BRANCH  16  63
HETATM   63  O6  RAP A 108      -0.134   9.970  28.319  1.00 14.16    -0.358 OA
HETATM   64  HO6 RAP A 108      -0.874  10.541  28.545  1.00 13.32     0.213 HD
ENDBRANCH  16  63
BRANCH  34  65
HETATM   65  O9  RAP A 108      -0.887  10.302  14.326  1.00 23.09    -0.344 OA
HETATM   66  C51 RAP A 108       0.451  10.008  14.528  1.00 19.04     0.175 C 
ENDBRANCH  34  65
BRANCH  23  67
HETATM   67  O7  RAP A 108      -1.361  14.166  25.298  1.00 20.17    -0.350 OA
HETATM   68  C50 RAP A 108      -0.335  15.105  25.343  1.00 28.36     0.175 C 
ENDBRANCH  23  67
TORSDOF 9
ENDMDL
MODEL 6
REMARK VINA RESULT:    -6.854      4.000     10.644
REMARK INTER + INTRA:         -11.644
REMARK INTER:                  -9.393
REMARK INTRA:                  -2.251
REMARK UNBOUND:                -1.785
REMARK  9 active torsions:
REMARK  status: ('A' for Active; 'I' for Inactive)
REMARK    1  A    between atoms: O6_12  and  C10_19 
REMARK    2  A    between atoms: O7_14  and  C16_29 
REMARK    3  A    between atoms: O9_18  and  C27_40 
REMARK    4  A    between atoms: O10_20  and  C28_41 
REMARK    5  A    between atoms: O12_24  and  C39_52 
REMARK    6  A    between atoms: O13_26  and  C40_53 
REMARK    7  A    between atoms: C34_47  and  C35_48 
REMARK    8  A    between atoms: C35_48  and  C36_49 
REMARK    9  A    between atoms: C36_49  and  C37_50 
ROOT
HETATM    1  C1  RAP A 108      -3.801  11.975  19.327  1.00  5.98     0.292 C 
HETATM    2  O1  RAP A 108      -2.536  12.440  18.874  1.00  9.08    -0.302 OA
HETATM    3  C2  RAP A 108      -5.079  12.792  19.144  1.00  6.42     0.171 C 
HETATM    4  O2  RAP A 108      -3.844  10.894  19.910  1.00 14.08    -0.262 OA
HETATM    5  C3  RAP A 108      -6.230  11.913  18.677  1.00  5.50     0.033 C 
HETATM    6  O3  RAP A 108      -4.918  15.354  19.913  1.00 10.38    -0.264 OA
HETATM    7  C4  RAP A 108      -6.138  11.516  17.210  1.00  4.49     0.004 C 
HETATM    8  O4  RAP A 108      -5.786  16.847  17.430  1.00 10.60    -0.281 OA
HETATM    9  C5  RAP A 108      -6.019  12.784  16.384  1.00  4.19     0.024 C 
HETATM   10  O5  RAP A 108      -2.896  16.027  16.443  1.00 10.76    -0.332 OA
HETATM   11  C6  RAP A 108      -4.821  13.581  16.798  1.00  3.25     0.105 C 
HETATM   12  N7  RAP A 108      -4.981  13.927  18.220  1.00  8.46    -0.307 N 
HETATM   13  C8  RAP A 108      -4.861  15.178  18.689  1.00 10.06     0.297 C 
HETATM   14  O8  RAP A 108       3.109   5.177  16.384  1.00 18.31    -0.293 OA
HETATM   15  C9  RAP A 108      -4.754  16.307  17.847  1.00 11.13     0.279 C 
HETATM   16  C10 RAP A 108      -3.394  16.898  17.431  1.00 16.59     0.246 C 
HETATM   17  C11 RAP A 108      -2.354  16.984  18.622  1.00 10.40     0.059 C 
HETATM   18  O11 RAP A 108      -2.410  10.626  16.533  1.00  9.49    -0.296 OA
HETATM   19  C12 RAP A 108      -0.929  17.280  18.101  1.00 12.17     0.008 C 
HETATM   20  C13 RAP A 108      -0.573  16.338  16.959  1.00 12.80     0.030 C 
HETATM   21  C14 RAP A 108      -1.651  16.252  15.883  1.00 10.37     0.121 C 
HETATM   22  C15 RAP A 108      -1.397  15.043  15.000  1.00  5.94     0.064 C 
HETATM   23  C16 RAP A 108      -0.187  15.113  14.076  1.00  9.79     0.136 C 
HETATM   24  C17 RAP A 108      -0.026  13.835  13.281  1.00 15.52    -0.017 C 
HETATM   25  C18 RAP A 108       1.034  13.073  13.516  1.00 14.38    -0.006 C 
HETATM   26  C19 RAP A 108       1.312  11.794  12.848  1.00  9.73    -0.001 C 
HETATM   27  C20 RAP A 108       2.435  11.149  13.132  1.00 10.26    -0.000 C 
HETATM   28  C21 RAP A 108       2.715   9.816  12.567  1.00 11.40    -0.005 C 
HETATM   29  C22 RAP A 108       3.722   9.077  12.995  1.00 17.77    -0.026 C 
HETATM   30  C23 RAP A 108       3.993   7.663  12.532  1.00 15.64     0.022 C 
HETATM   31  C24 RAP A 108       4.021   6.795  13.778  1.00 14.68     0.012 C 
HETATM   32  C25 RAP A 108       2.829   6.884  14.713  1.00 11.87     0.061 C 
HETATM   33  C26 RAP A 108       3.190   6.370  16.101  1.00 11.65     0.180 C 
HETATM   34  C27 RAP A 108       3.643   7.410  17.120  1.00  8.13     0.203 C 
HETATM   35  C28 RAP A 108       2.460   8.126  17.848  1.00 10.80     0.163 C 
HETATM   36  C29 RAP A 108       1.840   9.278  17.033  1.00  9.60    -0.019 C 
HETATM   37  C30 RAP A 108       0.620   9.216  16.502  1.00  8.55    -0.025 C 
HETATM   38  C31 RAP A 108      -0.158  10.275  15.707  1.00  8.43     0.079 C 
HETATM   39  C32 RAP A 108      -1.212  10.919  16.608  1.00 10.69     0.157 C 
HETATM   40  C33 RAP A 108      -0.683  11.904  17.644  1.00  6.51     0.095 C 
HETATM   41  C34 RAP A 108      -1.350  11.735  18.994  1.00  9.62     0.132 C 
HETATM   42  C43 RAP A 108      -2.735  17.968  19.767  1.00 11.25     0.005 C 
HETATM   43  C44 RAP A 108      -1.120  13.558  12.233  1.00 14.40     0.029 C 
HETATM   44  C45 RAP A 108       5.316   7.576  11.785  1.00  9.23     0.005 C 
HETATM   45  C46 RAP A 108       1.615   6.137  14.154  1.00 15.99     0.008 C 
HETATM   46  C47 RAP A 108       2.744  10.485  16.872  1.00 14.60     0.029 C 
HETATM   47  C48 RAP A 108      -0.843   9.595  14.512  1.00  9.37     0.013 C 
ENDROOT
BRANCH  41  48
HETATM   48  C35 RAP A 108      -0.645  12.307  20.240  1.00  9.58     0.028 C 
HETATM   49  C49 RAP A 108      -0.234  13.740  20.053  1.00  8.29     0.003 C 
BRANCH  48  50
HETATM   50  C36 RAP A 108       0.553  11.459  20.663  1.00 10.31     0.003 C 
BRANCH  50  51
HETATM   51  C37 RAP A 108       0.258  10.125  21.355  1.00 22.90     0.003 C 
HETATM   52  C38 RAP A 108      -0.898  10.292  22.348  1.00 14.17     0.032 C 
HETATM   53  C39 RAP A 108      -1.172   9.026  23.162  1.00 34.20     0.142 C 
HETATM   54  C40 RAP A 108      -1.374   7.804  22.202  1.00 38.24     0.138 C 
HETATM   55  C41 RAP A 108      -0.236   7.644  21.173  1.00 16.32     0.032 C 
HETATM   56  C42 RAP A 108       0.000   8.945  20.419  1.00 14.05     0.003 C 
BRANCH  53  57
HETATM   57  O12 RAP A 108      -2.344   9.271  23.897  1.00 30.82    -0.352 OA
HETATM   58  C52 RAP A 108      -3.457   9.678  23.179  1.00 28.14     0.174 C 
ENDBRANCH  53  57
BRANCH  54  59
HETATM   59  O13 RAP A 108      -1.472   6.611  22.978  1.00 28.84    -0.382 OA
HETATM   60  HO3 RAP A 108      -1.658   5.861  22.399  1.00 13.32     0.210 HD
ENDBRANCH  54  59
ENDBRANCH  50  51
ENDBRANCH  48  50
ENDBRANCH  41  48
BRANCH  35  61
HETATM   61  O10 RAP A 108       1.462   7.136  18.128  1.00 12.16    -0.378 OA
HETATM   62  HO1 RAP A 108       1.730   6.556  18.856  1.00 13.32     0.211 HD
ENDBRANCH  35  61
BRANCH  16  63
HETATM   63  O6  RAP A 108      -3.605  18.212  16.904  1.00 14.16    -0.358 OA
HETATM   64  HO6 RAP A 108      -3.653  18.144  15.946  1.00 13.32     0.213 HD
ENDBRANCH  16  63
BRANCH  34  65
HETATM   65  O9  RAP A 108       4.397   6.768  18.112  1.00 23.09    -0.344 OA
HETATM   66  C51 RAP A 108       4.678   7.527  19.236  1.00 19.04     0.175 C 
ENDBRANCH  34  65
BRANCH  23  67
HETATM   67  O7  RAP A 108      -0.379  16.182  13.203  1.00 20.17    -0.350 OA
HETATM   68  C50 RAP A 108       0.725  16.999  12.979  1.00 28.36     0.175 C 
ENDBRANCH  23  67
TORSDOF 9
ENDMDL
MODEL 7
REMARK VINA RESULT:    -6.833      5.790      9.543
REMARK INTER + INTRA:         -11.615
REMARK INTER:                  -9.836
REMARK INTRA:                  -1.779
REMARK UNBOUND:                -1.785
REMARK  9 active torsions:
REMARK  status: ('A' for Active; 'I' for Inactive)
REMARK    1  A    between atoms: O6_12  and  C10_19 
REMARK    2  A    between atoms: O7_14  and  C16_29 
REMARK    3  A    between atoms: O9_18  and  C27_40 
REMARK    4  A    between atoms: O10_20  and  C28_41 
REMARK    5  A    between atoms: O12_24  and  C39_52 
REMARK    6  A    between atoms: O13_26  and  C40_53 
REMARK    7  A    between atoms: C34_47  and  C35_48 
REMARK    8  A    between atoms: C35_48  and  C36_49 
REMARK    9  A    between atoms: C36_49  and  C37_50 
ROOT
HETATM    1  C1  RAP A 108      -2.707   7.850  21.926  1.00  5.98     0.292 C 
HETATM    2  O1  RAP A 108      -1.360   8.233  22.169  1.00  9.08    -0.302 OA
HETATM    3  C2  RAP A 108      -3.553   7.140  22.983  1.00  6.42     0.171 C 
HETATM    4  O2  RAP A 108      -3.181   8.077  20.815  1.00 14.08    -0.262 OA
HETATM    5  C3  RAP A 108      -4.956   7.724  23.045  1.00  5.50     0.033 C 
HETATM    6  O3  RAP A 108      -2.387   5.029  24.150  1.00 10.38    -0.264 OA
HETATM    7  C4  RAP A 108      -5.023   9.078  23.737  1.00  4.49     0.004 C 
HETATM    8  O4  RAP A 108      -2.575   5.709  27.091  1.00 10.60    -0.281 OA
HETATM    9  C5  RAP A 108      -4.405   8.936  25.116  1.00  4.19     0.024 C 
HETATM   10  O5  RAP A 108      -0.247   7.714  26.341  1.00 10.76    -0.332 OA
HETATM   11  C6  RAP A 108      -2.990   8.455  25.020  1.00  3.25     0.105 C 
HETATM   12  N7  RAP A 108      -3.005   7.147  24.343  1.00  8.46    -0.307 N 
HETATM   13  C8  RAP A 108      -2.399   6.058  24.838  1.00 10.06     0.297 C 
HETATM   14  O8  RAP A 108       0.931  16.067  17.251  1.00 18.31    -0.293 OA
HETATM   15  C9  RAP A 108      -1.846   6.009  26.137  1.00 11.13     0.279 C 
HETATM   16  C10 RAP A 108      -0.362   6.312  26.413  1.00 16.59     0.246 C 
HETATM   17  C11 RAP A 108       0.621   5.655  25.359  1.00 10.40     0.059 C 
HETATM   18  O11 RAP A 108      -1.957  11.120  22.481  1.00  9.49    -0.296 OA
HETATM   19  C12 RAP A 108       2.048   6.235  25.486  1.00 12.17     0.008 C 
HETATM   20  C13 RAP A 108       2.004   7.757  25.512  1.00 12.80     0.030 C 
HETATM   21  C14 RAP A 108       0.986   8.319  26.499  1.00 10.37     0.121 C 
HETATM   22  C15 RAP A 108       0.741   9.788  26.201  1.00  5.94     0.064 C 
HETATM   23  C16 RAP A 108       1.883  10.749  26.509  1.00  9.79     0.136 C 
HETATM   24  C17 RAP A 108       1.524  12.170  26.133  1.00 15.52    -0.017 C 
HETATM   25  C18 RAP A 108       2.191  12.749  25.143  1.00 14.38    -0.006 C 
HETATM   26  C19 RAP A 108       1.939  14.109  24.645  1.00  9.73    -0.001 C 
HETATM   27  C20 RAP A 108       2.710  14.596  23.683  1.00 10.26    -0.000 C 
HETATM   28  C21 RAP A 108       2.438  15.913  23.078  1.00 11.40    -0.005 C 
HETATM   29  C22 RAP A 108       3.064  16.321  21.990  1.00 17.77    -0.026 C 
HETATM   30  C23 RAP A 108       2.751  17.611  21.264  1.00 15.64     0.022 C 
HETATM   31  C24 RAP A 108       2.424  17.234  19.829  1.00 14.68     0.012 C 
HETATM   32  C25 RAP A 108       1.362  16.172  19.615  1.00 11.87     0.061 C 
HETATM   33  C26 RAP A 108       1.482  15.560  18.225  1.00 11.65     0.180 C 
HETATM   34  C27 RAP A 108       2.307  14.283  18.108  1.00  8.13     0.203 C 
HETATM   35  C28 RAP A 108       1.505  12.988  18.454  1.00 10.80     0.163 C 
HETATM   36  C29 RAP A 108       1.400  12.713  19.966  1.00  9.60    -0.019 C 
HETATM   37  C30 RAP A 108       0.259  12.820  20.646  1.00  8.55    -0.025 C 
HETATM   38  C31 RAP A 108      -0.028  12.545  22.129  1.00  8.43     0.079 C 
HETATM   39  C32 RAP A 108      -0.742  11.201  22.272  1.00 10.69     0.157 C 
HETATM   40  C33 RAP A 108       0.131   9.965  22.083  1.00  6.51     0.095 C 
HETATM   41  C34 RAP A 108      -0.554   8.896  21.259  1.00  9.62     0.132 C 
HETATM   42  C43 RAP A 108       0.659   4.098  25.367  1.00 11.25     0.005 C 
HETATM   43  C44 RAP A 108       0.416  12.826  26.976  1.00 14.40     0.029 C 
HETATM   44  C45 RAP A 108       3.933  18.568  21.314  1.00  9.23     0.005 C 
HETATM   45  C46 RAP A 108      -0.046  16.725  19.848  1.00 15.99     0.008 C 
HETATM   46  C47 RAP A 108       2.712  12.324  20.622  1.00 14.60     0.029 C 
HETATM   47  C48 RAP A 108      -0.923  13.668  22.678  1.00  9.37     0.013 C 
ENDROOT
BRANCH  41  48
HETATM   48  C35 RAP A 108       0.315   7.808  20.597  1.00  9.58     0.028 C 
HETATM   49  C49 RAP A 108       1.080   6.999  21.605  1.00  8.29     0.003 C 
BRANCH  48  50
HETATM   50  C36 RAP A 108       1.262   8.387  19.547  1.00 10.31     0.003 C 
BRANCH  50  51
HETATM   51  C37 RAP A 108       2.234   7.420  18.868  1.00 22.90     0.003 C 
HETATM   52  C38 RAP A 108       1.904   7.304  17.375  1.00 14.17     0.032 C 
HETATM   53  C39 RAP A 108       2.762   6.263  16.653  1.00 34.20     0.142 C 
HETATM   54  C40 RAP A 108       4.281   6.547  16.914  1.00 38.24     0.138 C 
HETATM   55  C41 RAP A 108       4.623   6.701  18.409  1.00 16.32     0.032 C 
HETATM   56  C42 RAP A 108       3.717   7.730  19.070  1.00 14.05     0.003 C 
BRANCH  53  57
HETATM   57  O12 RAP A 108       2.468   6.385  15.285  1.00 30.82    -0.352 OA
HETATM   58  C52 RAP A 108       1.661   7.448  14.912  1.00 28.14     0.174 C 
ENDBRANCH  53  57
BRANCH  54  59
HETATM   59  O13 RAP A 108       5.056   5.482  16.366  1.00 28.84    -0.382 OA
HETATM   60  HO3 RAP A 108       5.314   4.873  17.069  1.00 13.32     0.210 HD
ENDBRANCH  54  59
ENDBRANCH  50  51
ENDBRANCH  48  50
ENDBRANCH  41  48
BRANCH  35  61
HETATM   61  O10 RAP A 108       0.194  13.129  17.893  1.00 12.16    -0.378 OA
HETATM   62  HO1 RAP A 108       0.135  13.906  17.318  1.00 13.32     0.211 HD
ENDBRANCH  35  61
BRANCH  16  63
HETATM   63  O6  RAP A 108      -0.029   5.833  27.719  1.00 14.16    -0.358 OA
HETATM   64  HO6 RAP A 108       0.792   6.254  27.991  1.00 13.32     0.213 HD
ENDBRANCH  16  63
BRANCH  34  65
HETATM   65  O9  RAP A 108       2.739  14.148  16.780  1.00 23.09    -0.344 OA
HETATM   66  C51 RAP A 108       3.953  13.505  16.608  1.00 19.04     0.175 C 
ENDBRANCH  34  65
BRANCH  23  67
HETATM   67  O7  RAP A 108       2.138  10.681  27.877  1.00 20.17    -0.350 OA
HETATM   68  C50 RAP A 108       3.469  10.804  28.263  1.00 28.36     0.175 C 
ENDBRANCH  23  67
TORSDOF 9
ENDMDL
MODEL 8
REMARK VINA RESULT:    -6.706      2.680      7.744
REMARK INTER + INTRA:         -11.432
REMARK INTER:                  -9.184
REMARK INTRA:                  -2.248
REMARK UNBOUND:                -1.785
REMARK  9 active torsions:
REMARK  status: ('A' for Active; 'I' for Inactive)
REMARK    1  A    between atoms: O6_12  and  C10_19 
REMARK    2  A    between atoms: O7_14  and  C16_29 
REMARK    3  A    between atoms: O9_18  and  C27_40 
REMARK    4  A    between atoms: O10_20  and  C28_41 
REMARK    5  A    between atoms: O12_24  and  C39_52 
REMARK    6  A    between atoms: O13_26  and  C40_53 
REMARK    7  A    between atoms: C34_47  and  C35_48 
REMARK    8  A    between atoms: C35_48  and  C36_49 
REMARK    9  A    between atoms: C36_49  and  C37_50 
ROOT
HETATM    1  C1  RAP A 108       0.785  12.732  11.810  1.00  5.98     0.292 C 
HETATM    2  O1  RAP A 108       1.577  12.375  12.935  1.00  9.08    -0.302 OA
HETATM    3  C2  RAP A 108      -0.605  13.350  11.959  1.00  6.42     0.171 C 
HETATM    4  O2  RAP A 108       1.235  12.502  10.690  1.00 14.08    -0.262 OA
HETATM    5  C3  RAP A 108      -0.795  14.512  10.994  1.00  5.50     0.033 C 
HETATM    6  O3  RAP A 108      -2.251  12.069  13.639  1.00 10.38    -0.264 OA
HETATM    7  C4  RAP A 108      -0.062  15.779  11.411  1.00  4.49     0.004 C 
HETATM    8  O4  RAP A 108      -3.076  14.257  15.558  1.00 10.60    -0.281 OA
HETATM    9  C5  RAP A 108      -0.498  16.134  12.821  1.00  4.19     0.024 C 
HETATM   10  O5  RAP A 108      -0.146  13.809  16.661  1.00 10.76    -0.332 OA
HETATM   11  C6  RAP A 108      -0.207  15.012  13.769  1.00  3.25     0.105 C 
HETATM   12  N7  RAP A 108      -0.946  13.828  13.303  1.00  8.46    -0.307 N 
HETATM   13  C8  RAP A 108      -1.747  13.103  14.099  1.00 10.06     0.297 C 
HETATM   14  O8  RAP A 108      10.872  13.199  11.004  1.00 18.31    -0.293 OA
HETATM   15  C9  RAP A 108      -2.104  13.507  15.404  1.00 11.13     0.279 C 
HETATM   16  C10 RAP A 108      -1.328  13.043  16.651  1.00 16.59     0.246 C 
HETATM   17  C11 RAP A 108      -0.952  11.506  16.622  1.00 10.40     0.059 C 
HETATM   18  O11 RAP A 108       3.444  14.664  12.686  1.00  9.49    -0.296 OA
HETATM   19  C12 RAP A 108       0.080  11.160  17.719  1.00 12.17     0.008 C 
HETATM   20  C13 RAP A 108       1.244  12.141  17.684  1.00 12.80     0.030 C 
HETATM   21  C14 RAP A 108       0.806  13.602  17.642  1.00 10.37     0.121 C 
HETATM   22  C15 RAP A 108       1.980  14.477  17.237  1.00  5.94     0.064 C 
HETATM   23  C16 RAP A 108       3.106  14.625  18.253  1.00  9.79     0.136 C 
HETATM   24  C17 RAP A 108       4.226  15.488  17.712  1.00 15.52    -0.017 C 
HETATM   25  C18 RAP A 108       5.405  14.924  17.485  1.00 14.38    -0.006 C 
HETATM   26  C19 RAP A 108       6.576  15.622  16.936  1.00  9.73    -0.001 C 
HETATM   27  C20 RAP A 108       7.717  14.960  16.804  1.00 10.26    -0.000 C 
HETATM   28  C21 RAP A 108       8.892  15.581  16.167  1.00 11.40    -0.005 C 
HETATM   29  C22 RAP A 108       9.962  14.878  15.844  1.00 17.77    -0.026 C 
HETATM   30  C23 RAP A 108      11.150  15.436  15.092  1.00 15.64     0.022 C 
HETATM   31  C24 RAP A 108      11.332  14.569  13.859  1.00 14.68     0.012 C 
HETATM   32  C25 RAP A 108      10.121  14.367  12.967  1.00 11.87     0.061 C 
HETATM   33  C26 RAP A 108      10.296  13.136  12.087  1.00 11.65     0.180 C 
HETATM   34  C27 RAP A 108       9.710  11.830  12.612  1.00  8.13     0.203 C 
HETATM   35  C28 RAP A 108       8.188  11.659  12.302  1.00 10.80     0.163 C 
HETATM   36  C29 RAP A 108       7.270  12.402  13.292  1.00  9.60    -0.019 C 
HETATM   37  C30 RAP A 108       6.554  13.474  12.953  1.00  8.55    -0.025 C 
HETATM   38  C31 RAP A 108       5.568  14.299  13.793  1.00  8.43     0.079 C 
HETATM   39  C32 RAP A 108       4.135  13.935  13.403  1.00 10.69     0.157 C 
HETATM   40  C33 RAP A 108       3.634  12.588  13.912  1.00  6.51     0.095 C 
HETATM   41  C34 RAP A 108       2.849  11.832  12.861  1.00  9.62     0.132 C 
HETATM   42  C43 RAP A 108      -2.161  10.525  16.677  1.00 11.25     0.005 C 
HETATM   43  C44 RAP A 108       3.884  16.974  17.504  1.00 14.40     0.029 C 
HETATM   44  C45 RAP A 108      12.403  15.415  15.956  1.00  9.23     0.005 C 
HETATM   45  C46 RAP A 108       9.830  15.607  12.119  1.00 15.99     0.008 C 
HETATM   46  C47 RAP A 108       7.262  11.819  14.692  1.00 14.60     0.029 C 
HETATM   47  C48 RAP A 108       5.816  15.792  13.524  1.00  9.37     0.013 C 
ENDROOT
BRANCH  41  48
HETATM   48  C35 RAP A 108       2.667  10.310  13.032  1.00  9.58     0.028 C 
HETATM   49  C49 RAP A 108       1.291   9.953  13.515  1.00  8.29     0.003 C 
BRANCH  48  50
HETATM   50  C36 RAP A 108       3.729   9.703  13.947  1.00 10.31     0.003 C 
BRANCH  50  51
HETATM   51  C37 RAP A 108       3.347   9.477  15.412  1.00 22.90     0.003 C 
HETATM   52  C38 RAP A 108       3.016   7.999  15.647  1.00 14.17     0.032 C 
HETATM   53  C39 RAP A 108       2.512   7.718  17.064  1.00 34.20     0.142 C 
HETATM   54  C40 RAP A 108       3.528   8.281  18.116  1.00 38.24     0.138 C 
HETATM   55  C41 RAP A 108       3.899   9.758  17.872  1.00 16.32     0.032 C 
HETATM   56  C42 RAP A 108       4.366   9.971  16.439  1.00 14.05     0.003 C 
BRANCH  53  57
HETATM   57  O12 RAP A 108       2.410   6.321  17.181  1.00 30.82    -0.352 OA
HETATM   58  C52 RAP A 108       2.030   5.626  16.044  1.00 28.14     0.174 C 
ENDBRANCH  53  57
BRANCH  54  59
HETATM   59  O13 RAP A 108       2.970   8.151  19.422  1.00 28.84    -0.382 OA
HETATM   60  HO3 RAP A 108       2.897   7.216  19.652  1.00 13.32     0.210 HD
ENDBRANCH  54  59
ENDBRANCH  50  51
ENDBRANCH  48  50
ENDBRANCH  41  48
BRANCH  35  61
HETATM   61  O10 RAP A 108       7.962  12.143  10.972  1.00 12.16    -0.378 OA
HETATM   62  HO1 RAP A 108       7.611  11.447  10.396  1.00 13.32     0.211 HD
ENDBRANCH  35  61
BRANCH  16  63
HETATM   63  O6  RAP A 108      -2.124  13.304  17.811  1.00 14.16    -0.358 OA
HETATM   64  HO6 RAP A 108      -1.791  14.105  18.227  1.00 13.32     0.213 HD
ENDBRANCH  16  63
BRANCH  34  65
HETATM   65  O9  RAP A 108      10.371  10.760  11.990  1.00 23.09    -0.344 OA
HETATM   66  C51 RAP A 108      11.420  10.208  12.705  1.00 19.04     0.175 C 
ENDBRANCH  34  65
BRANCH  23  67
HETATM   67  O7  RAP A 108       2.573  15.220  19.395  1.00 20.17    -0.350 OA
HETATM   68  C50 RAP A 108       2.844  14.585  20.603  1.00 28.36     0.175 C 
ENDBRANCH  23  67
TORSDOF 9
ENDMDL
MODEL 9
REMARK VINA RESULT:    -6.614     16.134     20.887
REMARK INTER + INTRA:         -11.299
REMARK INTER:                  -8.988
REMARK INTRA:                  -2.311
REMARK UNBOUND:                -1.785
REMARK  9 active torsions:
REMARK  status: ('A' for Active; 'I' for Inactive)
REMARK    1  A    between atoms: O6_12  and  C10_19 
REMARK    2  A    between atoms: O7_14  and  C16_29 
REMARK    3  A    between atoms: O9_18  and  C27_40 
REMARK    4  A    between atoms: O10_20  and  C28_41 
REMARK    5  A    between atoms: O12_24  and  C39_52 
REMARK    6  A    between atoms: O13_26  and  C40_53 
REMARK    7  A    between atoms: C34_47  and  C35_48 
REMARK    8  A    between atoms: C35_48  and  C36_49 
REMARK    9  A    between atoms: C36_49  and  C37_50 
ROOT
HETATM    1  C1  RAP A 108      11.320  -3.765  29.314  1.00  5.98     0.292 C 
HETATM    2  O1  RAP A 108      11.418  -2.647  28.442  1.00  9.08    -0.302 OA
HETATM    3  C2  RAP A 108      12.540  -4.597  29.709  1.00  6.42     0.171 C 
HETATM    4  O2  RAP A 108      10.207  -4.078  29.731  1.00 14.08    -0.262 OA
HETATM    5  C3  RAP A 108      12.532  -4.911  31.197  1.00  5.50     0.033 C 
HETATM    6  O3  RAP A 108      14.092  -5.386  27.672  1.00 10.38    -0.264 OA
HETATM    7  C4  RAP A 108      12.913  -3.727  32.074  1.00  4.49     0.004 C 
HETATM    8  O4  RAP A 108      16.818  -4.351  28.476  1.00 10.60    -0.281 OA
HETATM    9  C5  RAP A 108      14.263  -3.211  31.610  1.00  4.19     0.024 C 
HETATM   10  O5  RAP A 108      15.552  -1.584  27.614  1.00 10.76    -0.332 OA
HETATM   11  C6  RAP A 108      14.216  -2.814  30.167  1.00  3.25     0.105 C 
HETATM   12  N7  RAP A 108      13.843  -4.004  29.386  1.00  8.46    -0.307 N 
HETATM   13  C8  RAP A 108      14.539  -4.431  28.321  1.00 10.06     0.297 C 
HETATM   14  O8  RAP A 108       4.815   3.909  30.498  1.00 18.31    -0.293 OA
HETATM   15  C9  RAP A 108      15.793  -3.893  27.956  1.00 11.13     0.279 C 
HETATM   16  C10 RAP A 108      15.934  -2.754  26.929  1.00 16.59     0.246 C 
HETATM   17  C11 RAP A 108      15.010  -2.938  25.657  1.00 10.40     0.059 C 
HETATM   18  O11 RAP A 108      11.115  -0.615  30.579  1.00  9.49    -0.296 OA
HETATM   19  C12 RAP A 108      14.948  -1.640  24.818  1.00 12.17     0.008 C 
HETATM   20  C13 RAP A 108      14.642  -0.445  25.709  1.00 12.80     0.030 C 
HETATM   21  C14 RAP A 108      15.523  -0.370  26.952  1.00 10.37     0.121 C 
HETATM   22  C15 RAP A 108      14.921   0.603  27.949  1.00  5.94     0.064 C 
HETATM   23  C16 RAP A 108      14.965   2.080  27.575  1.00  9.79     0.136 C 
HETATM   24  C17 RAP A 108      14.301   2.936  28.633  1.00 15.52    -0.017 C 
HETATM   25  C18 RAP A 108      13.183   3.576  28.318  1.00 14.38    -0.006 C 
HETATM   26  C19 RAP A 108      12.410   4.418  29.242  1.00  9.73    -0.001 C 
HETATM   27  C20 RAP A 108      11.333   5.048  28.793  1.00 10.26    -0.000 C 
HETATM   28  C21 RAP A 108      10.467   5.823  29.699  1.00 11.40    -0.005 C 
HETATM   29  C22 RAP A 108       9.291   6.283  29.314  1.00 17.77    -0.026 C 
HETATM   30  C23 RAP A 108       8.314   6.988  30.228  1.00 15.64     0.022 C 
HETATM   31  C24 RAP A 108       7.011   6.211  30.156  1.00 14.68     0.012 C 
HETATM   32  C25 RAP A 108       7.078   4.717  30.415  1.00 11.87     0.061 C 
HETATM   33  C26 RAP A 108       5.853   4.014  29.848  1.00 11.65     0.180 C 
HETATM   34  C27 RAP A 108       5.983   3.437  28.442  1.00  8.13     0.203 C 
HETATM   35  C28 RAP A 108       6.637   2.018  28.408  1.00 10.80     0.163 C 
HETATM   36  C29 RAP A 108       8.176   2.047  28.479  1.00  9.60    -0.019 C 
HETATM   37  C30 RAP A 108       8.862   1.624  29.540  1.00  8.55    -0.025 C 
HETATM   38  C31 RAP A 108      10.380   1.543  29.757  1.00  8.43     0.079 C 
HETATM   39  C32 RAP A 108      10.843   0.094  29.605  1.00 10.69     0.157 C 
HETATM   40  C33 RAP A 108      10.894  -0.437  28.177  1.00  6.51     0.095 C 
HETATM   41  C34 RAP A 108      10.352  -1.847  28.067  1.00  9.62     0.132 C 
HETATM   42  C43 RAP A 108      15.357  -4.159  24.754  1.00 11.25     0.005 C 
HETATM   43  C44 RAP A 108      15.026   3.004  29.989  1.00 14.40     0.029 C 
HETATM   44  C45 RAP A 108       8.105   8.432  29.796  1.00  9.23     0.005 C 
HETATM   45  C46 RAP A 108       7.243   4.410  31.906  1.00 15.99     0.008 C 
HETATM   46  C47 RAP A 108       8.847   2.612  27.241  1.00 14.60     0.029 C 
HETATM   47  C48 RAP A 108      10.707   2.046  31.172  1.00  9.37     0.013 C 
ENDROOT
BRANCH  41  48
HETATM   48  C35 RAP A 108       9.909  -2.359  26.682  1.00  9.58     0.028 C 
HETATM   49  C49 RAP A 108       8.487  -2.842  26.682  1.00  8.29     0.003 C 
BRANCH  48  50
HETATM   50  C36 RAP A 108      10.841  -3.442  26.143  1.00 10.31     0.003 C 
BRANCH  50  51
HETATM   51  C37 RAP A 108      11.542  -3.165  24.810  1.00 22.90     0.003 C 
HETATM   52  C38 RAP A 108      11.743  -4.476  24.040  1.00 14.17     0.032 C 
HETATM   53  C39 RAP A 108      12.543  -4.293  22.749  1.00 34.20     0.142 C 
HETATM   54  C40 RAP A 108      11.891  -3.172  21.869  1.00 38.24     0.138 C 
HETATM   55  C41 RAP A 108      11.649  -1.858  22.639  1.00 16.32     0.032 C 
HETATM   56  C42 RAP A 108      10.873  -2.116  23.923  1.00 14.05     0.003 C 
BRANCH  53  57
HETATM   57  O12 RAP A 108      12.505  -5.527  22.078  1.00 30.82    -0.352 OA
HETATM   58  C52 RAP A 108      12.943  -6.635  22.785  1.00 28.14     0.174 C 
ENDBRANCH  53  57
BRANCH  54  59
HETATM   59  O13 RAP A 108      12.733  -2.908  20.749  1.00 28.84    -0.382 OA
HETATM   60  HO3 RAP A 108      12.788  -1.955  20.601  1.00 13.32     0.210 HD
ENDBRANCH  54  59
ENDBRANCH  50  51
ENDBRANCH  48  50
ENDBRANCH  41  48
BRANCH  35  61
HETATM   61  O10 RAP A 108       6.114   1.275  29.516  1.00 12.16    -0.378 OA
HETATM   62  HO1 RAP A 108       6.470   1.594  30.359  1.00 13.32     0.211 HD
ENDBRANCH  35  61
BRANCH  16  63
HETATM   63  O6  RAP A 108      17.298  -2.684  26.505  1.00 14.16    -0.358 OA
HETATM   64  HO6 RAP A 108      17.456  -3.403  25.886  1.00 13.32     0.213 HD
ENDBRANCH  16  63
BRANCH  34  65
HETATM   65  O9  RAP A 108       4.701   3.303  27.891  1.00 23.09    -0.344 OA
HETATM   66  C51 RAP A 108       4.654   3.145  26.516  1.00 19.04     0.175 C 
ENDBRANCH  34  65
BRANCH  23  67
HETATM   67  O7  RAP A 108      16.303   2.449  27.452  1.00 20.17    -0.350 OA
HETATM   68  C50 RAP A 108      16.717   2.851  26.186  1.00 28.36     0.175 C 
ENDBRANCH  23  67
TORSDOF 9
ENDMDL
