MODEL 1
REMARK VINA RESULT:   -10.842      0.000      0.000
REMARK INTER + INTRA:         -17.927
REMARK INTER:                 -15.596
REMARK INTRA:                  -2.332
REMARK UNBOUND:                -2.332
REMARK  9 active torsions:
REMARK  status: ('A' for Active; 'I' for Inactive)
REMARK    1  A    between atoms: O6_12  and  C10_19 
REMARK    2  A    between atoms: O7_14  and  C16_29 
REMARK    3  A    between atoms: O9_18  and  C27_40 
REMARK    4  A    between atoms: O10_20  and  C28_41 
REMARK    5  A    between atoms: O12_24  and  C39_52 
REMARK    6  A    between atoms: O13_26  and  C40_53 
REMARK    7  A    between atoms: C34_47  and  C35_48 
REMARK    8  A    between atoms: C35_48  and  C36_49 
REMARK    9  A    between atoms: C36_49  and  C37_50 
ROOT
HETATM    1  C1  RAP A 108       4.736   8.386  12.872  1.00  5.98     0.292 C 
HETATM    2  O1  RAP A 108       4.411   9.471  13.730  1.00  9.08    -0.302 OA
HETATM    3  C2  RAP A 108       4.246   6.963  13.141  1.00  6.42     0.171 C 
HETATM    4  O2  RAP A 108       5.460   8.610  11.904  1.00 14.08    -0.262 OA
HETATM    5  C3  RAP A 108       3.750   6.303  11.863  1.00  5.50     0.033 C 
HETATM    6  O3  RAP A 108       4.641   6.072  15.637  1.00 10.38    -0.264 OA
HETATM    7  C4  RAP A 108       2.388   6.807  11.405  1.00  4.49     0.004 C 
HETATM    8  O4  RAP A 108       1.863   5.233  16.488  1.00 10.60    -0.281 OA
HETATM    9  C5  RAP A 108       1.409   6.633  12.552  1.00  4.19     0.024 C 
HETATM   10  O5  RAP A 108       1.447   8.360  16.711  1.00 10.76    -0.332 OA
HETATM   11  C6  RAP A 108       1.873   7.376  13.767  1.00  3.25     0.105 C 
HETATM   12  N7  RAP A 108       3.188   6.836  14.149  1.00  8.46    -0.307 N 
HETATM   13  C8  RAP A 108       3.479   6.421  15.391  1.00 10.06     0.297 C 
HETATM   14  O8  RAP A 108       3.892  17.656   8.877  1.00 18.31    -0.293 OA
HETATM   15  C9  RAP A 108       2.504   6.288  16.405  1.00 11.13     0.279 C 
HETATM   16  C10 RAP A 108       2.210   7.410  17.417  1.00 16.59     0.246 C 
HETATM   17  C11 RAP A 108       3.515   8.106  17.981  1.00 10.40     0.059 C 
HETATM   18  O11 RAP A 108       2.410  10.668  11.898  1.00  9.49    -0.296 OA
HETATM   19  C12 RAP A 108       3.173   9.411  18.737  1.00 12.17     0.008 C 
HETATM   20  C13 RAP A 108       2.249  10.284  17.899  1.00 12.80     0.030 C 
HETATM   21  C14 RAP A 108       1.051   9.531  17.330  1.00 10.37     0.121 C 
HETATM   22  C15 RAP A 108       0.404  10.354  16.230  1.00  5.94     0.064 C 
HETATM   23  C16 RAP A 108      -0.329  11.618  16.662  1.00  9.79     0.136 C 
HETATM   24  C17 RAP A 108      -0.894  12.362  15.471  1.00 15.52    -0.017 C 
HETATM   25  C18 RAP A 108      -0.394  13.555  15.177  1.00 14.38    -0.006 C 
HETATM   26  C19 RAP A 108      -0.816  14.384  14.039  1.00  9.73    -0.001 C 
HETATM   27  C20 RAP A 108      -0.275  15.584  13.880  1.00 10.26    -0.000 C 
HETATM   28  C21 RAP A 108      -0.588  16.413  12.701  1.00 11.40    -0.005 C 
HETATM   29  C22 RAP A 108       0.089  17.512  12.425  1.00 17.77    -0.026 C 
HETATM   30  C23 RAP A 108      -0.113  18.342  11.176  1.00 15.64     0.022 C 
HETATM   31  C24 RAP A 108       1.239  18.430  10.489  1.00 14.68     0.012 C 
HETATM   32  C25 RAP A 108       1.963  17.126  10.211  1.00 11.87     0.061 C 
HETATM   33  C26 RAP A 108       3.450  17.370   9.986  1.00 11.65     0.180 C 
HETATM   34  C27 RAP A 108       4.358  17.228  11.203  1.00  8.13     0.203 C 
HETATM   35  C28 RAP A 108       4.789  15.754  11.492  1.00 10.80     0.163 C 
HETATM   36  C29 RAP A 108       3.729  14.941  12.260  1.00  9.60    -0.019 C 
HETATM   37  C30 RAP A 108       3.038  13.945  11.707  1.00  8.55    -0.025 C 
HETATM   38  C31 RAP A 108       1.989  13.014  12.333  1.00  8.43     0.079 C 
HETATM   39  C32 RAP A 108       2.618  11.650  12.617  1.00 10.69     0.157 C 
HETATM   40  C33 RAP A 108       3.562  11.594  13.813  1.00  6.51     0.095 C 
HETATM   41  C34 RAP A 108       4.808  10.782  13.525  1.00  9.62     0.132 C 
HETATM   42  C43 RAP A 108       4.433   7.194  18.849  1.00 11.25     0.005 C 
HETATM   43  C44 RAP A 108      -2.038  11.657  14.722  1.00 14.40     0.029 C 
HETATM   44  C45 RAP A 108      -0.634  19.730  11.520  1.00  9.23     0.005 C 
HETATM   45  C46 RAP A 108       1.348  16.379   9.025  1.00 15.99     0.008 C 
HETATM   46  C47 RAP A 108       3.526  15.381  13.697  1.00 14.60     0.029 C 
HETATM   47  C48 RAP A 108       0.820  12.852  11.350  1.00  9.37     0.013 C 
ENDROOT
BRANCH  41  48
HETATM   48  C35 RAP A 108       6.046  10.991  14.420  1.00  9.58     0.028 C 
HETATM   49  C49 RAP A 108       5.690  11.050  15.878  1.00  8.29     0.003 C 
BRANCH  48  50
HETATM   50  C36 RAP A 108       6.847  12.227  14.015  1.00 10.31     0.003 C 
BRANCH  50  51
HETATM   51  C37 RAP A 108       7.469  12.234  12.617  1.00 22.90     0.003 C 
HETATM   52  C38 RAP A 108       7.786  13.672  12.190  1.00 14.17     0.032 C 
HETATM   53  C39 RAP A 108       8.304  13.767  10.753  1.00 34.20     0.142 C 
HETATM   54  C40 RAP A 108       9.520  12.798  10.556  1.00 38.24     0.138 C 
HETATM   55  C41 RAP A 108       9.227  11.355  11.015  1.00 16.32     0.032 C 
HETATM   56  C42 RAP A 108       8.692  11.335  12.439  1.00 14.05     0.003 C 
BRANCH  53  57
HETATM   57  O12 RAP A 108       8.703  15.100  10.561  1.00 30.82    -0.352 OA
HETATM   58  C52 RAP A 108       9.684  15.586  11.412  1.00 28.14     0.174 C 
ENDBRANCH  53  57
BRANCH  54  59
HETATM   59  O13 RAP A 108       9.887  12.784   9.178  1.00 28.84    -0.382 OA
HETATM   60  HO3 RAP A 108      10.121  13.677   8.895  1.00 13.32     0.210 HD
ENDBRANCH  54  59
ENDBRANCH  50  51
ENDBRANCH  48  50
ENDBRANCH  41  48
BRANCH  35  61
HETATM   61  O10 RAP A 108       5.062  15.129  10.231  1.00 12.16    -0.378 OA
HETATM   62  HO1 RAP A 108       4.293  15.164   9.643  1.00 13.32     0.211 HD
ENDBRANCH  35  61
BRANCH  16  63
HETATM   63  O6  RAP A 108       1.468   6.860  18.511  1.00 14.16    -0.358 OA
HETATM   64  HO6 RAP A 108       1.616   7.417  19.280  1.00 13.32     0.213 HD
ENDBRANCH  16  63
BRANCH  34  65
HETATM   65  O9  RAP A 108       5.536  17.954  10.971  1.00 23.09    -0.344 OA
HETATM   66  C51 RAP A 108       6.523  17.815  11.932  1.00 19.04     0.175 C 
ENDBRANCH  34  65
BRANCH  23  67
HETATM   67  O7  RAP A 108      -1.371  11.238  17.507  1.00 20.17    -0.350 OA
HETATM   68  C50 RAP A 108      -1.547  12.008  18.652  1.00 28.36     0.175 C 
ENDBRANCH  23  67
TORSDOF 9
ENDMDL
MODEL 2
REMARK VINA RESULT:   -10.024      1.540      2.018
REMARK INTER + INTRA:         -16.750
REMARK INTER:                 -14.639
REMARK INTRA:                  -2.111
REMARK UNBOUND:                -2.332
REMARK  9 active torsions:
REMARK  status: ('A' for Active; 'I' for Inactive)
REMARK    1  A    between atoms: O6_12  and  C10_19 
REMARK    2  A    between atoms: O7_14  and  C16_29 
REMARK    3  A    between atoms: O9_18  and  C27_40 
REMARK    4  A    between atoms: O10_20  and  C28_41 
REMARK    5  A    between atoms: O12_24  and  C39_52 
REMARK    6  A    between atoms: O13_26  and  C40_53 
REMARK    7  A    between atoms: C34_47  and  C35_48 
REMARK    8  A    between atoms: C35_48  and  C36_49 
REMARK    9  A    between atoms: C36_49  and  C37_50 
ROOT
HETATM    1  C1  RAP A 108       4.735   8.365  12.872  1.00  5.98     0.292 C 
HETATM    2  O1  RAP A 108       4.431   9.442  13.749  1.00  9.08    -0.302 OA
HETATM    3  C2  RAP A 108       4.239   6.943  13.130  1.00  6.42     0.171 C 
HETATM    4  O2  RAP A 108       5.446   8.597  11.897  1.00 14.08    -0.262 OA
HETATM    5  C3  RAP A 108       3.718   6.304  11.851  1.00  5.50     0.033 C 
HETATM    6  O3  RAP A 108       4.663   6.016  15.608  1.00 10.38    -0.264 OA
HETATM    7  C4  RAP A 108       2.354   6.824  11.420  1.00  4.49     0.004 C 
HETATM    8  O4  RAP A 108       1.891   5.187  16.489  1.00 10.60    -0.281 OA
HETATM    9  C5  RAP A 108       1.391   6.642  12.579  1.00  4.19     0.024 C 
HETATM   10  O5  RAP A 108       1.503   8.314  16.759  1.00 10.76    -0.332 OA
HETATM   11  C6  RAP A 108       1.878   7.366  13.797  1.00  3.25     0.105 C 
HETATM   12  N7  RAP A 108       3.195   6.811  14.152  1.00  8.46    -0.307 N 
HETATM   13  C8  RAP A 108       3.500   6.377  15.384  1.00 10.06     0.297 C 
HETATM   14  O8  RAP A 108       3.904  17.694   9.012  1.00 18.31    -0.293 OA
HETATM   15  C9  RAP A 108       2.539   6.238  16.410  1.00 11.13     0.279 C 
HETATM   16  C10 RAP A 108       2.269   7.348  17.442  1.00 16.59     0.246 C 
HETATM   17  C11 RAP A 108       3.588   8.027  17.995  1.00 10.40     0.059 C 
HETATM   18  O11 RAP A 108       2.413  10.678  11.963  1.00  9.49    -0.296 OA
HETATM   19  C12 RAP A 108       3.267   9.324  18.772  1.00 12.17     0.008 C 
HETATM   20  C13 RAP A 108       2.338  10.216  17.960  1.00 12.80     0.030 C 
HETATM   21  C14 RAP A 108       1.125   9.480  17.400  1.00 10.37     0.121 C 
HETATM   22  C15 RAP A 108       0.469  10.322  16.320  1.00  5.94     0.064 C 
HETATM   23  C16 RAP A 108      -0.249  11.585  16.780  1.00  9.79     0.136 C 
HETATM   24  C17 RAP A 108      -0.825  12.350  15.607  1.00 15.52    -0.017 C 
HETATM   25  C18 RAP A 108      -0.320  13.543  15.321  1.00 14.38    -0.006 C 
HETATM   26  C19 RAP A 108      -0.752  14.389  14.200  1.00  9.73    -0.001 C 
HETATM   27  C20 RAP A 108      -0.205  15.587  14.049  1.00 10.26    -0.000 C 
HETATM   28  C21 RAP A 108      -0.529  16.434  12.886  1.00 11.40    -0.005 C 
HETATM   29  C22 RAP A 108       0.153  17.532  12.614  1.00 17.77    -0.026 C 
HETATM   30  C23 RAP A 108      -0.061  18.379  11.379  1.00 15.64     0.022 C 
HETATM   31  C24 RAP A 108       1.281  18.467  10.674  1.00 14.68     0.012 C 
HETATM   32  C25 RAP A 108       1.991  17.161  10.368  1.00 11.87     0.061 C 
HETATM   33  C26 RAP A 108       3.476  17.396  10.124  1.00 11.65     0.180 C 
HETATM   34  C27 RAP A 108       4.401  17.232  11.326  1.00  8.13     0.203 C 
HETATM   35  C28 RAP A 108       4.825  15.751  11.588  1.00 10.80     0.163 C 
HETATM   36  C29 RAP A 108       3.770  14.936  12.361  1.00  9.60    -0.019 C 
HETATM   37  C30 RAP A 108       3.063  13.952  11.806  1.00  8.55    -0.025 C 
HETATM   38  C31 RAP A 108       2.016  13.021  12.436  1.00  8.43     0.079 C 
HETATM   39  C32 RAP A 108       2.639  11.649  12.692  1.00 10.69     0.157 C 
HETATM   40  C33 RAP A 108       3.600  11.570  13.872  1.00  6.51     0.095 C 
HETATM   41  C34 RAP A 108       4.836  10.752  13.555  1.00  9.62     0.132 C 
HETATM   42  C43 RAP A 108       4.511   7.097  18.837  1.00 11.25     0.005 C 
HETATM   43  C44 RAP A 108      -1.986  11.662  14.866  1.00 14.40     0.029 C 
HETATM   44  C45 RAP A 108      -0.567  19.766  11.749  1.00  9.23     0.005 C 
HETATM   45  C46 RAP A 108       1.352  16.434   9.181  1.00 15.99     0.008 C 
HETATM   46  C47 RAP A 108       3.592  15.358  13.807  1.00 14.60     0.029 C 
HETATM   47  C48 RAP A 108       0.831  12.880  11.467  1.00  9.37     0.013 C 
ENDROOT
BRANCH  41  48
HETATM   48  C35 RAP A 108       6.088  10.940  14.435  1.00  9.58     0.028 C 
HETATM   49  C49 RAP A 108       5.739  11.301  15.850  1.00  8.29     0.003 C 
BRANCH  48  50
HETATM   50  C36 RAP A 108       7.057  11.963  13.846  1.00 10.31     0.003 C 
BRANCH  50  51
HETATM   51  C37 RAP A 108       7.499  13.115  14.752  1.00 22.90     0.003 C 
HETATM   52  C38 RAP A 108       8.973  12.946  15.136  1.00 14.17     0.032 C 
HETATM   53  C39 RAP A 108       9.454  13.998  16.137  1.00 34.20     0.142 C 
HETATM   54  C40 RAP A 108       9.133  15.435  15.599  1.00 38.24     0.138 C 
HETATM   55  C41 RAP A 108       7.661  15.610  15.175  1.00 16.32     0.032 C 
HETATM   56  C42 RAP A 108       7.242  14.518  14.202  1.00 14.05     0.003 C 
BRANCH  53  57
HETATM   57  O12 RAP A 108      10.842  13.821  16.265  1.00 30.82    -0.352 OA
HETATM   58  C52 RAP A 108      11.471  13.085  15.274  1.00 28.14     0.174 C 
ENDBRANCH  53  57
BRANCH  54  59
HETATM   59  O13 RAP A 108       9.445  16.392  16.610  1.00 28.84    -0.382 OA
HETATM   60  HO3 RAP A 108       9.463  17.277  16.224  1.00 13.32     0.210 HD
ENDBRANCH  54  59
ENDBRANCH  50  51
ENDBRANCH  48  50
ENDBRANCH  41  48
BRANCH  35  61
HETATM   61  O10 RAP A 108       5.074  15.140  10.315  1.00 12.16    -0.378 OA
HETATM   62  HO1 RAP A 108       4.250  14.977   9.832  1.00 13.32     0.211 HD
ENDBRANCH  35  61
BRANCH  16  63
HETATM   63  O6  RAP A 108       1.539   6.790  18.538  1.00 14.16    -0.358 OA
HETATM   64  HO6 RAP A 108       1.246   7.513  19.100  1.00 13.32     0.213 HD
ENDBRANCH  16  63
BRANCH  34  65
HETATM   65  O9  RAP A 108       5.581  17.952  11.085  1.00 23.09    -0.344 OA
HETATM   66  C51 RAP A 108       6.555  17.848  12.065  1.00 19.04     0.175 C 
ENDBRANCH  34  65
BRANCH  23  67
HETATM   67  O7  RAP A 108      -1.280  11.202  17.634  1.00 20.17    -0.350 OA
HETATM   68  C50 RAP A 108      -1.480  12.001  18.757  1.00 28.36     0.175 C 
ENDBRANCH  23  67
TORSDOF 9
ENDMDL
