MODEL 1
REMARK VINA RESULT:   -10.809      0.000      0.000
REMARK INTER + INTRA:         -17.904
REMARK INTER:                 -15.549
REMARK INTRA:                  -2.355
REMARK UNBOUND:                -2.355
REMARK  9 active torsions:
REMARK  status: ('A' for Active; 'I' for Inactive)
REMARK    1  A    between atoms: O6_12  and  C10_19 
REMARK    2  A    between atoms: O7_14  and  C16_29 
REMARK    3  A    between atoms: O9_18  and  C27_40 
REMARK    4  A    between atoms: O10_20  and  C28_41 
REMARK    5  A    between atoms: O12_24  and  C39_52 
REMARK    6  A    between atoms: O13_26  and  C40_53 
REMARK    7  A    between atoms: C34_47  and  C35_48 
REMARK    8  A    between atoms: C35_48  and  C36_49 
REMARK    9  A    between atoms: C36_49  and  C37_50 
ROOT
HETATM    1  C1  RAP A 108       4.810   8.379  12.916  1.00  5.98     0.292 C 
HETATM    2  O1  RAP A 108       4.463   9.451  13.783  1.00  9.08    -0.302 OA
HETATM    3  C2  RAP A 108       4.333   6.948  13.162  1.00  6.42     0.171 C 
HETATM    4  O2  RAP A 108       5.543   8.623  11.960  1.00 14.08    -0.262 OA
HETATM    5  C3  RAP A 108       3.858   6.299  11.871  1.00  5.50     0.033 C 
HETATM    6  O3  RAP A 108       4.707   6.031  15.652  1.00 10.38    -0.264 OA
HETATM    7  C4  RAP A 108       2.497   6.794  11.403  1.00  4.49     0.004 C 
HETATM    8  O4  RAP A 108       1.928   5.152  16.460  1.00 10.60    -0.281 OA
HETATM    9  C5  RAP A 108       1.506   6.596  12.536  1.00  4.19     0.024 C 
HETATM   10  O5  RAP A 108       1.477   8.272  16.716  1.00 10.76    -0.332 OA
HETATM   11  C6  RAP A 108       1.948   7.329  13.765  1.00  3.25     0.105 C 
HETATM   12  N7  RAP A 108       3.264   6.798  14.156  1.00  8.46    -0.307 N 
HETATM   13  C8  RAP A 108       3.544   6.371  15.396  1.00 10.06     0.297 C 
HETATM   14  O8  RAP A 108       3.915  17.689   9.024  1.00 18.31    -0.293 OA
HETATM   15  C9  RAP A 108       2.559   6.215  16.397  1.00 11.13     0.279 C 
HETATM   16  C10 RAP A 108       2.241   7.321  17.419  1.00 16.59     0.246 C 
HETATM   17  C11 RAP A 108       3.533   8.024  18.007  1.00 10.40     0.059 C 
HETATM   18  O11 RAP A 108       2.472  10.649  11.943  1.00  9.49    -0.296 OA
HETATM   19  C12 RAP A 108       3.168   9.316  18.774  1.00 12.17     0.008 C 
HETATM   20  C13 RAP A 108       2.245  10.189  17.936  1.00 12.80     0.030 C 
HETATM   21  C14 RAP A 108       1.061   9.431  17.344  1.00 10.37     0.121 C 
HETATM   22  C15 RAP A 108       0.419  10.261  16.247  1.00  5.94     0.064 C 
HETATM   23  C16 RAP A 108      -0.334  11.511  16.685  1.00  9.79     0.136 C 
HETATM   24  C17 RAP A 108      -0.892  12.264  15.497  1.00 15.52    -0.017 C 
HETATM   25  C18 RAP A 108      -0.401  13.466  15.223  1.00 14.38    -0.006 C 
HETATM   26  C19 RAP A 108      -0.818  14.304  14.090  1.00  9.73    -0.001 C 
HETATM   27  C20 RAP A 108      -0.289  15.512  13.952  1.00 10.26    -0.000 C 
HETATM   28  C21 RAP A 108      -0.597  16.352  12.780  1.00 11.40    -0.005 C 
HETATM   29  C22 RAP A 108       0.072  17.461  12.525  1.00 17.77    -0.026 C 
HETATM   30  C23 RAP A 108      -0.124  18.304  11.284  1.00 15.64     0.022 C 
HETATM   31  C24 RAP A 108       1.235  18.415  10.614  1.00 14.68     0.012 C 
HETATM   32  C25 RAP A 108       1.976  17.122  10.329  1.00 11.87     0.061 C 
HETATM   33  C26 RAP A 108       3.462  17.384  10.125  1.00 11.65     0.180 C 
HETATM   34  C27 RAP A 108       4.358  17.237  11.351  1.00  8.13     0.203 C 
HETATM   35  C28 RAP A 108       4.801  15.764  11.626  1.00 10.80     0.163 C 
HETATM   36  C29 RAP A 108       3.741  14.931  12.372  1.00  9.60    -0.019 C 
HETATM   37  C30 RAP A 108       3.067  13.934  11.799  1.00  8.55    -0.025 C 
HETATM   38  C31 RAP A 108       2.020  12.985  12.402  1.00  8.43     0.079 C 
HETATM   39  C32 RAP A 108       2.661  11.624  12.676  1.00 10.69     0.157 C 
HETATM   40  C33 RAP A 108       3.591  11.563  13.882  1.00  6.51     0.095 C 
HETATM   41  C34 RAP A 108       4.849  10.768  13.599  1.00  9.62     0.132 C 
HETATM   42  C43 RAP A 108       4.449   7.111  18.875  1.00 11.25     0.005 C 
HETATM   43  C44 RAP A 108      -2.020  11.556  14.726  1.00 14.40     0.029 C 
HETATM   44  C45 RAP A 108      -0.664  19.682  11.639  1.00  9.23     0.005 C 
HETATM   45  C46 RAP A 108       1.382  16.383   9.127  1.00 15.99     0.008 C 
HETATM   46  C47 RAP A 108       3.516  15.351  13.812  1.00 14.60     0.029 C 
HETATM   47  C48 RAP A 108       0.865  12.822  11.402  1.00  9.37     0.013 C 
ENDROOT
BRANCH  41  48
HETATM   48  C35 RAP A 108       6.074  10.979  14.512  1.00  9.58     0.028 C 
HETATM   49  C49 RAP A 108       5.694  11.069  15.961  1.00  8.29     0.003 C 
BRANCH  48  50
HETATM   50  C36 RAP A 108       6.896  12.198  14.098  1.00 10.31     0.003 C 
BRANCH  50  51
HETATM   51  C37 RAP A 108       7.506  12.190  12.694  1.00 22.90     0.003 C 
HETATM   52  C38 RAP A 108       7.672  13.626  12.185  1.00 14.17     0.032 C 
HETATM   53  C39 RAP A 108       8.168  13.694  10.739  1.00 34.20     0.142 C 
HETATM   54  C40 RAP A 108       9.476  12.844  10.581  1.00 38.24     0.138 C 
HETATM   55  C41 RAP A 108       9.336  11.407  11.122  1.00 16.32     0.032 C 
HETATM   56  C42 RAP A 108       8.814  11.412  12.552  1.00 14.05     0.003 C 
BRANCH  53  57
HETATM   57  O12 RAP A 108       8.428  15.047  10.469  1.00 30.82    -0.352 OA
HETATM   58  C52 RAP A 108       9.376  15.672  11.266  1.00 28.14     0.174 C 
ENDBRANCH  53  57
BRANCH  54  59
HETATM   59  O13 RAP A 108       9.835  12.790   9.202  1.00 28.84    -0.382 OA
HETATM   60  HO3 RAP A 108       9.066  13.003   8.658  1.00 13.32     0.210 HD
ENDBRANCH  54  59
ENDBRANCH  50  51
ENDBRANCH  48  50
ENDBRANCH  41  48
BRANCH  35  61
HETATM   61  O10 RAP A 108       5.095  15.157  10.361  1.00 12.16    -0.378 OA
HETATM   62  HO1 RAP A 108       4.688  15.645   9.630  1.00 13.32     0.211 HD
ENDBRANCH  35  61
BRANCH  16  63
HETATM   63  O6  RAP A 108       1.493   6.750  18.497  1.00 14.16    -0.358 OA
HETATM   64  HO6 RAP A 108       0.565   6.746  18.246  1.00 13.32     0.213 HD
ENDBRANCH  16  63
BRANCH  34  65
HETATM   65  O9  RAP A 108       5.531  17.978  11.141  1.00 23.09    -0.344 OA
HETATM   66  C51 RAP A 108       6.464  17.921  12.162  1.00 19.04     0.175 C 
ENDBRANCH  34  65
BRANCH  23  67
HETATM   67  O7  RAP A 108      -1.381  11.110  17.513  1.00 20.17    -0.350 OA
HETATM   68  C50 RAP A 108      -1.553  11.839  18.686  1.00 28.36     0.175 C 
ENDBRANCH  23  67
TORSDOF 9
ENDMDL
MODEL 2
REMARK VINA RESULT:    -8.749      1.662      2.706
REMARK INTER + INTRA:         -14.940
REMARK INTER:                 -12.823
REMARK INTRA:                  -2.118
REMARK UNBOUND:                -2.355
REMARK  9 active torsions:
REMARK  status: ('A' for Active; 'I' for Inactive)
REMARK    1  A    between atoms: O6_12  and  C10_19 
REMARK    2  A    between atoms: O7_14  and  C16_29 
REMARK    3  A    between atoms: O9_18  and  C27_40 
REMARK    4  A    between atoms: O10_20  and  C28_41 
REMARK    5  A    between atoms: O12_24  and  C39_52 
REMARK    6  A    between atoms: O13_26  and  C40_53 
REMARK    7  A    between atoms: C34_47  and  C35_48 
REMARK    8  A    between atoms: C35_48  and  C36_49 
REMARK    9  A    between atoms: C36_49  and  C37_50 
ROOT
HETATM    1  C1  RAP A 108       4.486   8.651  12.784  1.00  5.98     0.292 C 
HETATM    2  O1  RAP A 108       4.101   9.759  13.587  1.00  9.08    -0.302 OA
HETATM    3  C2  RAP A 108       4.068   7.220  13.119  1.00  6.42     0.171 C 
HETATM    4  O2  RAP A 108       5.203   8.865  11.809  1.00 14.08    -0.262 OA
HETATM    5  C3  RAP A 108       3.613   6.475  11.873  1.00  5.50     0.033 C 
HETATM    6  O3  RAP A 108       4.492   6.471  15.656  1.00 10.38    -0.264 OA
HETATM    7  C4  RAP A 108       2.231   6.886  11.386  1.00  4.49     0.004 C 
HETATM    8  O4  RAP A 108       1.755   5.533  16.537  1.00 10.60    -0.281 OA
HETATM    9  C5  RAP A 108       1.255   6.717  12.537  1.00  4.19     0.024 C 
HETATM   10  O5  RAP A 108       1.179   8.641  16.607  1.00 10.76    -0.332 OA
HETATM   11  C6  RAP A 108       1.673   7.541  13.716  1.00  3.25     0.105 C 
HETATM   12  N7  RAP A 108       3.011   7.088  14.128  1.00  8.46    -0.307 N 
HETATM   13  C8  RAP A 108       3.315   6.748  15.390  1.00 10.06     0.297 C 
HETATM   14  O8  RAP A 108       3.197  17.664   8.343  1.00 18.31    -0.293 OA
HETATM   15  C9  RAP A 108       2.342   6.614  16.405  1.00 11.13     0.279 C 
HETATM   16  C10 RAP A 108       1.985   7.766  17.362  1.00 16.59     0.246 C 
HETATM   17  C11 RAP A 108       3.250   8.555  17.896  1.00 10.40     0.059 C 
HETATM   18  O11 RAP A 108       2.053  10.762  11.692  1.00  9.49    -0.296 OA
HETATM   19  C12 RAP A 108       2.837   9.875  18.586  1.00 12.17     0.008 C 
HETATM   20  C13 RAP A 108       1.875  10.659  17.704  1.00 12.80     0.030 C 
HETATM   21  C14 RAP A 108       0.720   9.819  17.168  1.00 10.37     0.121 C 
HETATM   22  C15 RAP A 108       0.039  10.555  16.027  1.00  5.94     0.064 C 
HETATM   23  C16 RAP A 108      -0.760  11.799  16.395  1.00  9.79     0.136 C 
HETATM   24  C17 RAP A 108      -1.354  12.455  15.167  1.00 15.52    -0.017 C 
HETATM   25  C18 RAP A 108      -0.914  13.657  14.818  1.00 14.38    -0.006 C 
HETATM   26  C19 RAP A 108      -1.370  14.407  13.639  1.00  9.73    -0.001 C 
HETATM   27  C20 RAP A 108      -0.891  15.624  13.425  1.00 10.26    -0.000 C 
HETATM   28  C21 RAP A 108      -1.238  16.379  12.207  1.00 11.40    -0.005 C 
HETATM   29  C22 RAP A 108      -0.616  17.496  11.880  1.00 17.77    -0.026 C 
HETATM   30  C23 RAP A 108      -0.852  18.254  10.592  1.00 15.64     0.022 C 
HETATM   31  C24 RAP A 108       0.498  18.378   9.907  1.00 14.68     0.012 C 
HETATM   32  C25 RAP A 108       1.289  17.101   9.694  1.00 11.87     0.061 C 
HETATM   33  C26 RAP A 108       2.763  17.409   9.464  1.00 11.65     0.180 C 
HETATM   34  C27 RAP A 108       3.670  17.372  10.689  1.00  8.13     0.203 C 
HETATM   35  C28 RAP A 108       4.173  15.938  11.050  1.00 10.80     0.163 C 
HETATM   36  C29 RAP A 108       3.151  15.110  11.853  1.00  9.60    -0.019 C 
HETATM   37  C30 RAP A 108       2.515  14.054  11.346  1.00  8.55    -0.025 C 
HETATM   38  C31 RAP A 108       1.511  13.102  12.013  1.00  8.43     0.079 C 
HETATM   39  C32 RAP A 108       2.206  11.787  12.364  1.00 10.69     0.157 C 
HETATM   40  C33 RAP A 108       3.145  11.837  13.564  1.00  6.51     0.095 C 
HETATM   41  C34 RAP A 108       4.433  11.077  13.320  1.00  9.62     0.132 C 
HETATM   42  C43 RAP A 108       4.207   7.733  18.810  1.00 11.25     0.005 C 
HETATM   43  C44 RAP A 108      -2.457  11.657  14.449  1.00 14.40     0.029 C 
HETATM   44  C45 RAP A 108      -1.445  19.628  10.867  1.00  9.23     0.005 C 
HETATM   45  C46 RAP A 108       0.719  16.268   8.544  1.00 15.99     0.008 C 
HETATM   46  C47 RAP A 108       2.917  15.607  13.266  1.00 14.60     0.029 C 
HETATM   47  C48 RAP A 108       0.357  12.833  11.033  1.00  9.37     0.013 C 
ENDROOT
BRANCH  41  48
HETATM   48  C35 RAP A 108       5.652  11.391  14.209  1.00  9.58     0.028 C 
HETATM   49  C49 RAP A 108       6.850  10.563  13.845  1.00  8.29     0.003 C 
BRANCH  48  50
HETATM   50  C36 RAP A 108       5.333  11.245  15.696  1.00 10.31     0.003 C 
BRANCH  50  51
HETATM   51  C37 RAP A 108       5.299  12.525  16.535  1.00 22.90     0.003 C 
HETATM   52  C38 RAP A 108       6.219  13.584  15.918  1.00 14.17     0.032 C 
HETATM   53  C39 RAP A 108       6.326  14.851  16.767  1.00 34.20     0.142 C 
HETATM   54  C40 RAP A 108       4.895  15.408  17.083  1.00 38.24     0.138 C 
HETATM   55  C41 RAP A 108       3.946  14.344  17.672  1.00 16.32     0.032 C 
HETATM   56  C42 RAP A 108       3.907  13.103  16.793  1.00 14.05     0.003 C 
BRANCH  53  57
HETATM   57  O12 RAP A 108       7.057  15.780  16.008  1.00 30.82    -0.352 OA
HETATM   58  C52 RAP A 108       8.170  15.300  15.336  1.00 28.14     0.174 C 
ENDBRANCH  53  57
BRANCH  54  59
HETATM   59  O13 RAP A 108       5.007  16.493  18.002  1.00 28.84    -0.382 OA
HETATM   60  HO3 RAP A 108       4.277  16.462  18.632  1.00 13.32     0.210 HD
ENDBRANCH  54  59
ENDBRANCH  50  51
ENDBRANCH  48  50
ENDBRANCH  41  48
BRANCH  35  61
HETATM   61  O10 RAP A 108       4.485  15.268   9.822  1.00 12.16    -0.378 OA
HETATM   62  HO1 RAP A 108       4.172  14.351   9.828  1.00 13.32     0.211 HD
ENDBRANCH  35  61
BRANCH  16  63
HETATM   63  O6  RAP A 108       1.266   7.233  18.477  1.00 14.16    -0.358 OA
HETATM   64  HO6 RAP A 108       1.870   6.684  18.986  1.00 13.32     0.213 HD
ENDBRANCH  16  63
BRANCH  34  65
HETATM   65  O9  RAP A 108       4.811  18.145  10.427  1.00 23.09    -0.344 OA
HETATM   66  C51 RAP A 108       5.738  18.211  11.453  1.00 19.04     0.175 C 
ENDBRANCH  34  65
BRANCH  23  67
HETATM   67  O7  RAP A 108      -1.786  11.406  17.253  1.00 20.17    -0.350 OA
HETATM   68  C50 RAP A 108      -1.960  12.179  18.398  1.00 28.36     0.175 C 
ENDBRANCH  23  67
TORSDOF 9
ENDMDL
