MODEL 1
REMARK VINA RESULT:   -10.832      0.000      0.000
REMARK INTER + INTRA:         -17.907
REMARK INTER:                 -15.582
REMARK INTRA:                  -2.325
REMARK UNBOUND:                -2.325
REMARK  9 active torsions:
REMARK  status: ('A' for Active; 'I' for Inactive)
REMARK    1  A    between atoms: O6_12  and  C10_19 
REMARK    2  A    between atoms: O7_14  and  C16_29 
REMARK    3  A    between atoms: O9_18  and  C27_40 
REMARK    4  A    between atoms: O10_20  and  C28_41 
REMARK    5  A    between atoms: O12_24  and  C39_52 
REMARK    6  A    between atoms: O13_26  and  C40_53 
REMARK    7  A    between atoms: C34_47  and  C35_48 
REMARK    8  A    between atoms: C35_48  and  C36_49 
REMARK    9  A    between atoms: C36_49  and  C37_50 
ROOT
HETATM    1  C1  RAP A 108       4.755   8.360  12.961  1.00  5.98     0.292 C 
HETATM    2  O1  RAP A 108       4.415   9.445  13.814  1.00  9.08    -0.302 OA
HETATM    3  C2  RAP A 108       4.275   6.934  13.230  1.00  6.42     0.171 C 
HETATM    4  O2  RAP A 108       5.484   8.588  11.998  1.00 14.08    -0.262 OA
HETATM    5  C3  RAP A 108       3.792   6.267  11.950  1.00  5.50     0.033 C 
HETATM    6  O3  RAP A 108       4.658   6.051  15.730  1.00 10.38    -0.264 OA
HETATM    7  C4  RAP A 108       2.430   6.760  11.481  1.00  4.49     0.004 C 
HETATM    8  O4  RAP A 108       1.881   5.192  16.564  1.00 10.60    -0.281 OA
HETATM    9  C5  RAP A 108       1.444   6.581  12.621  1.00  4.19     0.024 C 
HETATM   10  O5  RAP A 108       1.439   8.316  16.777  1.00 10.76    -0.332 OA
HETATM   11  C6  RAP A 108       1.894   7.330  13.838  1.00  3.25     0.105 C 
HETATM   12  N7  RAP A 108       3.210   6.801  14.230  1.00  8.46    -0.307 N 
HETATM   13  C8  RAP A 108       3.495   6.390  15.475  1.00 10.06     0.297 C 
HETATM   14  O8  RAP A 108       3.869  17.615   8.940  1.00 18.31    -0.293 OA
HETATM   15  C9  RAP A 108       2.514   6.252  16.482  1.00 11.13     0.279 C 
HETATM   16  C10 RAP A 108       2.204   7.373  17.490  1.00 16.59     0.246 C 
HETATM   17  C11 RAP A 108       3.500   8.081  18.062  1.00 10.40     0.059 C 
HETATM   18  O11 RAP A 108       2.419  10.622  11.966  1.00  9.49    -0.296 OA
HETATM   19  C12 RAP A 108       3.143   9.384  18.812  1.00 12.17     0.008 C 
HETATM   20  C13 RAP A 108       2.218  10.249  17.966  1.00 12.80     0.030 C 
HETATM   21  C14 RAP A 108       1.029   9.486  17.391  1.00 10.37     0.121 C 
HETATM   22  C15 RAP A 108       0.385  10.302  16.284  1.00  5.94     0.064 C 
HETATM   23  C16 RAP A 108      -0.362  11.561  16.709  1.00  9.79     0.136 C 
HETATM   24  C17 RAP A 108      -0.923  12.298  15.512  1.00 15.52    -0.017 C 
HETATM   25  C18 RAP A 108      -0.430  13.494  15.219  1.00 14.38    -0.006 C 
HETATM   26  C19 RAP A 108      -0.850  14.317  14.076  1.00  9.73    -0.001 C 
HETATM   27  C20 RAP A 108      -0.318  15.521  13.918  1.00 10.26    -0.000 C 
HETATM   28  C21 RAP A 108      -0.629  16.346  12.736  1.00 11.40    -0.005 C 
HETATM   29  C22 RAP A 108       0.042  17.449  12.462  1.00 17.77    -0.026 C 
HETATM   30  C23 RAP A 108      -0.158  18.275  11.210  1.00 15.64     0.022 C 
HETATM   31  C24 RAP A 108       1.198  18.372  10.532  1.00 14.68     0.012 C 
HETATM   32  C25 RAP A 108       1.935  17.073  10.262  1.00 11.87     0.061 C 
HETATM   33  C26 RAP A 108       3.421  17.328  10.047  1.00 11.65     0.180 C 
HETATM   34  C27 RAP A 108       4.322  17.195  11.271  1.00  8.13     0.203 C 
HETATM   35  C28 RAP A 108       4.761  15.725  11.566  1.00 10.80     0.163 C 
HETATM   36  C29 RAP A 108       3.702  14.906  12.328  1.00  9.60    -0.019 C 
HETATM   37  C30 RAP A 108       3.023  13.903  11.773  1.00  8.55    -0.025 C 
HETATM   38  C31 RAP A 108       1.976  12.966  12.393  1.00  8.43     0.079 C 
HETATM   39  C32 RAP A 108       2.614  11.607  12.684  1.00 10.69     0.157 C 
HETATM   40  C33 RAP A 108       3.550  11.561  13.887  1.00  6.51     0.095 C 
HETATM   41  C34 RAP A 108       4.804  10.758  13.609  1.00  9.62     0.132 C 
HETATM   42  C43 RAP A 108       4.418   7.178  18.939  1.00 11.25     0.005 C 
HETATM   43  C44 RAP A 108      -2.057  11.582  14.756  1.00 14.40     0.029 C 
HETATM   44  C45 RAP A 108      -0.692  19.659  11.547  1.00  9.23     0.005 C 
HETATM   45  C46 RAP A 108       1.333  16.319   9.073  1.00 15.99     0.008 C 
HETATM   46  C47 RAP A 108       3.486  15.347  13.763  1.00 14.60     0.029 C 
HETATM   47  C48 RAP A 108       0.816  12.792  11.401  1.00  9.37     0.013 C 
ENDROOT
BRANCH  41  48
HETATM   48  C35 RAP A 108       6.034  10.978  14.513  1.00  9.58     0.028 C 
HETATM   49  C49 RAP A 108       5.664  11.062  15.966  1.00  8.29     0.003 C 
BRANCH  48  50
HETATM   50  C36 RAP A 108       6.842  12.205  14.096  1.00 10.31     0.003 C 
BRANCH  50  51
HETATM   51  C37 RAP A 108       7.456  12.198  12.694  1.00 22.90     0.003 C 
HETATM   52  C38 RAP A 108       7.777  13.631  12.253  1.00 14.17     0.032 C 
HETATM   53  C39 RAP A 108       8.286  13.713  10.813  1.00 34.20     0.142 C 
HETATM   54  C40 RAP A 108       9.497  12.737  10.616  1.00 38.24     0.138 C 
HETATM   55  C41 RAP A 108       9.201  11.299  11.088  1.00 16.32     0.032 C 
HETATM   56  C42 RAP A 108       8.675  11.293  12.516  1.00 14.05     0.003 C 
BRANCH  53  57
HETATM   57  O12 RAP A 108       8.690  15.043  10.607  1.00 30.82    -0.352 OA
HETATM   58  C52 RAP A 108       9.425  15.635  11.622  1.00 28.14     0.174 C 
ENDBRANCH  53  57
BRANCH  54  59
HETATM   59  O13 RAP A 108       9.856  12.710   9.236  1.00 28.84    -0.382 OA
HETATM   60  HO3 RAP A 108      10.797  12.510   9.149  1.00 13.32     0.210 HD
ENDBRANCH  54  59
ENDBRANCH  50  51
ENDBRANCH  48  50
ENDBRANCH  41  48
BRANCH  35  61
HETATM   61  O10 RAP A 108       5.048  15.100  10.308  1.00 12.16    -0.378 OA
HETATM   62  HO1 RAP A 108       4.540  15.501   9.588  1.00 13.32     0.211 HD
ENDBRANCH  35  61
BRANCH  16  63
HETATM   63  O6  RAP A 108       1.459   6.821  18.579  1.00 14.16    -0.358 OA
HETATM   64  HO6 RAP A 108       1.009   7.541  19.029  1.00 13.32     0.213 HD
ENDBRANCH  16  63
BRANCH  34  65
HETATM   65  O9  RAP A 108       5.495  17.930  11.045  1.00 23.09    -0.344 OA
HETATM   66  C51 RAP A 108       6.440  17.872  12.056  1.00 19.04     0.175 C 
ENDBRANCH  34  65
BRANCH  23  67
HETATM   67  O7  RAP A 108      -1.406  11.174  17.546  1.00 20.17    -0.350 OA
HETATM   68  C50 RAP A 108      -1.565  11.915  18.714  1.00 28.36     0.175 C 
ENDBRANCH  23  67
TORSDOF 9
ENDMDL
MODEL 2
REMARK VINA RESULT:    -9.676      1.789      2.427
REMARK INTER + INTRA:         -16.244
REMARK INTER:                 -14.029
REMARK INTRA:                  -2.215
REMARK UNBOUND:                -2.325
REMARK  9 active torsions:
REMARK  status: ('A' for Active; 'I' for Inactive)
REMARK    1  A    between atoms: O6_12  and  C10_19 
REMARK    2  A    between atoms: O7_14  and  C16_29 
REMARK    3  A    between atoms: O9_18  and  C27_40 
REMARK    4  A    between atoms: O10_20  and  C28_41 
REMARK    5  A    between atoms: O12_24  and  C39_52 
REMARK    6  A    between atoms: O13_26  and  C40_53 
REMARK    7  A    between atoms: C34_47  and  C35_48 
REMARK    8  A    between atoms: C35_48  and  C36_49 
REMARK    9  A    between atoms: C36_49  and  C37_50 
ROOT
HETATM    1  C1  RAP A 108       4.709   8.518  12.932  1.00  5.98     0.292 C 
HETATM    2  O1  RAP A 108       4.315   9.604  13.760  1.00  9.08    -0.302 OA
HETATM    3  C2  RAP A 108       4.269   7.081  13.213  1.00  6.42     0.171 C 
HETATM    4  O2  RAP A 108       5.452   8.754  11.981  1.00 14.08    -0.262 OA
HETATM    5  C3  RAP A 108       3.837   6.379  11.934  1.00  5.50     0.033 C 
HETATM    6  O3  RAP A 108       4.625   6.251  15.736  1.00 10.38    -0.264 OA
HETATM    7  C4  RAP A 108       2.471   6.819  11.428  1.00  4.49     0.004 C 
HETATM    8  O4  RAP A 108       1.859   5.314  16.522  1.00 10.60    -0.281 OA
HETATM    9  C5  RAP A 108       1.466   6.626  12.550  1.00  4.19     0.024 C 
HETATM   10  O5  RAP A 108       1.312   8.425  16.675  1.00 10.76    -0.332 OA
HETATM   11  C6  RAP A 108       1.864   7.408  13.763  1.00  3.25     0.105 C 
HETATM   12  N7  RAP A 108       3.188   6.929  14.193  1.00  8.46    -0.307 N 
HETATM   13  C8  RAP A 108       3.458   6.548  15.450  1.00 10.06     0.297 C 
HETATM   14  O8  RAP A 108       3.612  17.675   8.741  1.00 18.31    -0.293 OA
HETATM   15  C9  RAP A 108       2.460   6.393  16.438  1.00 11.13     0.279 C 
HETATM   16  C10 RAP A 108       2.091   7.519  17.420  1.00 16.59     0.246 C 
HETATM   17  C11 RAP A 108       3.351   8.278  18.008  1.00 10.40     0.059 C 
HETATM   18  O11 RAP A 108       2.323  10.686  11.849  1.00  9.49    -0.296 OA
HETATM   19  C12 RAP A 108       2.934   9.581  18.729  1.00 12.17     0.008 C 
HETATM   20  C13 RAP A 108       2.001  10.401  17.849  1.00 12.80     0.030 C 
HETATM   21  C14 RAP A 108       0.851   9.590  17.260  1.00 10.37     0.121 C 
HETATM   22  C15 RAP A 108       0.205  10.367  16.127  1.00  5.94     0.064 C 
HETATM   23  C16 RAP A 108      -0.592  11.607  16.514  1.00  9.79     0.136 C 
HETATM   24  C17 RAP A 108      -1.150  12.307  15.293  1.00 15.52    -0.017 C 
HETATM   25  C18 RAP A 108      -0.690  13.514  14.991  1.00 14.38    -0.006 C 
HETATM   26  C19 RAP A 108      -1.111  14.304  13.826  1.00  9.73    -0.001 C 
HETATM   27  C20 RAP A 108      -0.615  15.523  13.660  1.00 10.26    -0.000 C 
HETATM   28  C21 RAP A 108      -0.926  16.318  12.458  1.00 11.40    -0.005 C 
HETATM   29  C22 RAP A 108      -0.285  17.438  12.181  1.00 17.77    -0.026 C 
HETATM   30  C23 RAP A 108      -0.483  18.237  10.911  1.00 15.64     0.022 C 
HETATM   31  C24 RAP A 108       0.884  18.368  10.262  1.00 14.68     0.012 C 
HETATM   32  C25 RAP A 108       1.668  17.090  10.029  1.00 11.87     0.061 C 
HETATM   33  C26 RAP A 108       3.149  17.390   9.843  1.00 11.65     0.180 C 
HETATM   34  C27 RAP A 108       4.026  17.307  11.088  1.00  8.13     0.203 C 
HETATM   35  C28 RAP A 108       4.507  15.857  11.416  1.00 10.80     0.163 C 
HETATM   36  C29 RAP A 108       3.458  15.015  12.168  1.00  9.60    -0.019 C 
HETATM   37  C30 RAP A 108       2.824  13.982  11.615  1.00  8.55    -0.025 C 
HETATM   38  C31 RAP A 108       1.795  13.021  12.228  1.00  8.43     0.079 C 
HETATM   39  C32 RAP A 108       2.470  11.688  12.555  1.00 10.69     0.157 C 
HETATM   40  C33 RAP A 108       3.380  11.692  13.778  1.00  6.51     0.095 C 
HETATM   41  C34 RAP A 108       4.666  10.926  13.541  1.00  9.62     0.132 C 
HETATM   42  C43 RAP A 108       4.278   7.419  18.919  1.00 11.25     0.005 C 
HETATM   43  C44 RAP A 108      -2.243  11.542  14.525  1.00 14.40     0.029 C 
HETATM   44  C45 RAP A 108      -1.070  19.608  11.214  1.00  9.23     0.005 C 
HETATM   45  C46 RAP A 108       1.118  16.298   8.840  1.00 15.99     0.008 C 
HETATM   46  C47 RAP A 108       3.196  15.472  13.591  1.00 14.60     0.029 C 
HETATM   47  C48 RAP A 108       0.663  12.793  11.214  1.00  9.37     0.013 C 
ENDROOT
BRANCH  41  48
HETATM   48  C35 RAP A 108       5.867  11.201  14.468  1.00  9.58     0.028 C 
HETATM   49  C49 RAP A 108       5.573  10.853  15.899  1.00  8.29     0.003 C 
BRANCH  48  50
HETATM   50  C36 RAP A 108       6.360  12.643  14.359  1.00 10.31     0.003 C 
BRANCH  50  51
HETATM   51  C37 RAP A 108       6.657  13.384  15.665  1.00 22.90     0.003 C 
HETATM   52  C38 RAP A 108       8.096  13.913  15.654  1.00 14.17     0.032 C 
HETATM   53  C39 RAP A 108       8.503  14.564  16.976  1.00 34.20     0.142 C 
HETATM   54  C40 RAP A 108       7.460  15.665  17.375  1.00 38.24     0.138 C 
HETATM   55  C41 RAP A 108       6.004  15.157  17.356  1.00 16.32     0.032 C 
HETATM   56  C42 RAP A 108       5.675  14.499  16.024  1.00 14.05     0.003 C 
BRANCH  53  57
HETATM   57  O12 RAP A 108       9.766  15.141  16.765  1.00 30.82    -0.352 OA
HETATM   58  C52 RAP A 108       9.869  16.058  15.730  1.00 28.14     0.174 C 
ENDBRANCH  53  57
BRANCH  54  59
HETATM   59  O13 RAP A 108       7.768  16.150  18.680  1.00 28.84    -0.382 OA
HETATM   60  HO3 RAP A 108       8.722  16.276  18.764  1.00 13.32     0.210 HD
ENDBRANCH  54  59
ENDBRANCH  50  51
ENDBRANCH  48  50
ENDBRANCH  41  48
BRANCH  35  61
HETATM   61  O10 RAP A 108       4.842  15.221  10.176  1.00 12.16    -0.378 OA
HETATM   62  HO1 RAP A 108       4.131  14.636   9.873  1.00 13.32     0.211 HD
ENDBRANCH  35  61
BRANCH  16  63
HETATM   63  O6  RAP A 108       1.341   6.959  18.502  1.00 14.16    -0.358 OA
HETATM   64  HO6 RAP A 108       1.691   6.083  18.686  1.00 13.32     0.213 HD
ENDBRANCH  16  63
BRANCH  34  65
HETATM   65  O9  RAP A 108       5.180  18.076  10.876  1.00 23.09    -0.344 OA
HETATM   66  C51 RAP A 108       6.044  18.168  11.955  1.00 19.04     0.175 C 
ENDBRANCH  34  65
BRANCH  23  67
HETATM   67  O7  RAP A 108      -1.641  11.200  17.335  1.00 20.17    -0.350 OA
HETATM   68  C50 RAP A 108      -1.988  12.067  18.367  1.00 28.36     0.175 C 
ENDBRANCH  23  67
TORSDOF 9
ENDMDL
