MODEL 1
REMARK VINA RESULT:   -10.876      0.000      0.000
REMARK INTER + INTRA:         -17.947
REMARK INTER:                 -15.645
REMARK INTRA:                  -2.302
REMARK UNBOUND:                -2.302
REMARK  9 active torsions:
REMARK  status: ('A' for Active; 'I' for Inactive)
REMARK    1  A    between atoms: O6_12  and  C10_19 
REMARK    2  A    between atoms: O7_14  and  C16_29 
REMARK    3  A    between atoms: O9_18  and  C27_40 
REMARK    4  A    between atoms: O10_20  and  C28_41 
REMARK    5  A    between atoms: O12_24  and  C39_52 
REMARK    6  A    between atoms: O13_26  and  C40_53 
REMARK    7  A    between atoms: C34_47  and  C35_48 
REMARK    8  A    between atoms: C35_48  and  C36_49 
REMARK    9  A    between atoms: C36_49  and  C37_50 
ROOT
HETATM    1  C1  RAP A 108       4.798   8.386  12.916  1.00  5.98     0.292 C 
HETATM    2  O1  RAP A 108       4.457   9.462  13.779  1.00  9.08    -0.302 OA
HETATM    3  C2  RAP A 108       4.312   6.958  13.168  1.00  6.42     0.171 C 
HETATM    4  O2  RAP A 108       5.532   8.621  11.960  1.00 14.08    -0.262 OA
HETATM    5  C3  RAP A 108       3.834   6.306  11.879  1.00  5.50     0.033 C 
HETATM    6  O3  RAP A 108       4.681   6.049  15.661  1.00 10.38    -0.264 OA
HETATM    7  C4  RAP A 108       2.476   6.807  11.408  1.00  4.49     0.004 C 
HETATM    8  O4  RAP A 108       1.897   5.189  16.471  1.00 10.60    -0.281 OA
HETATM    9  C5  RAP A 108       1.484   6.619  12.542  1.00  4.19     0.024 C 
HETATM   10  O5  RAP A 108       1.463   8.312  16.715  1.00 10.76    -0.332 OA
HETATM   11  C6  RAP A 108       1.929   7.354  13.768  1.00  3.25     0.105 C 
HETATM   12  N7  RAP A 108       3.242   6.818  14.162  1.00  8.46    -0.307 N 
HETATM   13  C8  RAP A 108       3.520   6.394  15.404  1.00 10.06     0.297 C 
HETATM   14  O8  RAP A 108       3.956  17.685   8.988  1.00 18.31    -0.293 OA
HETATM   15  C9  RAP A 108       2.533   6.248  16.404  1.00 11.13     0.279 C 
HETATM   16  C10 RAP A 108       2.222   7.359  17.423  1.00 16.59     0.246 C 
HETATM   17  C11 RAP A 108       3.517   8.057  18.008  1.00 10.40     0.059 C 
HETATM   18  O11 RAP A 108       2.473  10.664  11.933  1.00  9.49    -0.296 OA
HETATM   19  C12 RAP A 108       3.159   9.354  18.770  1.00 12.17     0.008 C 
HETATM   20  C13 RAP A 108       2.241  10.230  17.928  1.00 12.80     0.030 C 
HETATM   21  C14 RAP A 108       1.053   9.476  17.339  1.00 10.37     0.121 C 
HETATM   22  C15 RAP A 108       0.416  10.305  16.238  1.00  5.94     0.064 C 
HETATM   23  C16 RAP A 108      -0.329  11.561  16.671  1.00  9.79     0.136 C 
HETATM   24  C17 RAP A 108      -0.883  12.313  15.479  1.00 15.52    -0.017 C 
HETATM   25  C18 RAP A 108      -0.385  13.511  15.201  1.00 14.38    -0.006 C 
HETATM   26  C19 RAP A 108      -0.797  14.346  14.065  1.00  9.73    -0.001 C 
HETATM   27  C20 RAP A 108      -0.261  15.550  13.922  1.00 10.26    -0.000 C 
HETATM   28  C21 RAP A 108      -0.564  16.388  12.747  1.00 11.40    -0.005 C 
HETATM   29  C22 RAP A 108       0.111  17.492  12.488  1.00 17.77    -0.026 C 
HETATM   30  C23 RAP A 108      -0.080  18.332  11.244  1.00 15.64     0.022 C 
HETATM   31  C24 RAP A 108       1.280  18.432  10.574  1.00 14.68     0.012 C 
HETATM   32  C25 RAP A 108       2.014  17.134  10.294  1.00 11.87     0.061 C 
HETATM   33  C26 RAP A 108       3.502  17.387  10.090  1.00 11.65     0.180 C 
HETATM   34  C27 RAP A 108       4.396  17.239  11.316  1.00  8.13     0.203 C 
HETATM   35  C28 RAP A 108       4.831  15.765  11.598  1.00 10.80     0.163 C 
HETATM   36  C29 RAP A 108       3.766  14.941  12.346  1.00  9.60    -0.019 C 
HETATM   37  C30 RAP A 108       3.086  13.945  11.777  1.00  8.55    -0.025 C 
HETATM   38  C31 RAP A 108       2.034  13.005  12.383  1.00  8.43     0.079 C 
HETATM   39  C32 RAP A 108       2.667  11.642  12.663  1.00 10.69     0.157 C 
HETATM   40  C33 RAP A 108       3.597  11.580  13.869  1.00  6.51     0.095 C 
HETATM   41  C34 RAP A 108       4.850  10.777  13.590  1.00  9.62     0.132 C 
HETATM   42  C43 RAP A 108       4.428   7.142  18.880  1.00 11.25     0.005 C 
HETATM   43  C44 RAP A 108      -2.015  11.608  14.711  1.00 14.40     0.029 C 
HETATM   44  C45 RAP A 108      -0.612  19.714  11.593  1.00  9.23     0.005 C 
HETATM   45  C46 RAP A 108       1.416  16.394   9.095  1.00 15.99     0.008 C 
HETATM   46  C47 RAP A 108       3.543  15.368  13.784  1.00 14.60     0.029 C 
HETATM   47  C48 RAP A 108       0.878  12.845  11.383  1.00  9.37     0.013 C 
ENDROOT
BRANCH  41  48
HETATM   48  C35 RAP A 108       6.076  10.984  14.502  1.00  9.58     0.028 C 
HETATM   49  C49 RAP A 108       5.692  11.114  15.948  1.00  8.29     0.003 C 
BRANCH  48  50
HETATM   50  C36 RAP A 108       6.923  12.177  14.064  1.00 10.31     0.003 C 
BRANCH  50  51
HETATM   51  C37 RAP A 108       7.532  12.128  12.661  1.00 22.90     0.003 C 
HETATM   52  C38 RAP A 108       7.808  13.550  12.157  1.00 14.17     0.032 C 
HETATM   53  C39 RAP A 108       8.309  13.585  10.712  1.00 34.20     0.142 C 
HETATM   54  C40 RAP A 108       9.549  12.639  10.552  1.00 38.24     0.138 C 
HETATM   55  C41 RAP A 108       9.299  11.214  11.087  1.00 16.32     0.032 C 
HETATM   56  C42 RAP A 108       8.778  11.254  12.517  1.00 14.05     0.003 C 
BRANCH  53  57
HETATM   57  O12 RAP A 108       8.672  14.916  10.448  1.00 30.82    -0.352 OA
HETATM   58  C52 RAP A 108       9.529  15.521  11.355  1.00 28.14     0.174 C 
ENDBRANCH  53  57
BRANCH  54  59
HETATM   59  O13 RAP A 108       9.904  12.563   9.173  1.00 28.84    -0.382 OA
HETATM   60  HO3 RAP A 108      10.860  12.658   9.078  1.00 13.32     0.210 HD
ENDBRANCH  54  59
ENDBRANCH  50  51
ENDBRANCH  48  50
ENDBRANCH  41  48
BRANCH  35  61
HETATM   61  O10 RAP A 108       5.122  15.152  10.335  1.00 12.16    -0.378 OA
HETATM   62  HO1 RAP A 108       4.767  15.670   9.598  1.00 13.32     0.211 HD
ENDBRANCH  35  61
BRANCH  16  63
HETATM   63  O6  RAP A 108       1.470   6.797  18.502  1.00 14.16    -0.358 OA
HETATM   64  HO6 RAP A 108       2.090   6.422  19.134  1.00 13.32     0.213 HD
ENDBRANCH  16  63
BRANCH  34  65
HETATM   65  O9  RAP A 108       5.573  17.973  11.104  1.00 23.09    -0.344 OA
HETATM   66  C51 RAP A 108       6.552  17.826  12.073  1.00 19.04     0.175 C 
ENDBRANCH  34  65
BRANCH  23  67
HETATM   67  O7  RAP A 108      -1.379  11.169  17.500  1.00 20.17    -0.350 OA
HETATM   68  C50 RAP A 108      -1.574  11.930  18.649  1.00 28.36     0.175 C 
ENDBRANCH  23  67
TORSDOF 9
ENDMDL
MODEL 2
REMARK VINA RESULT:   -10.383      0.606      1.161
REMARK INTER + INTRA:         -17.237
REMARK INTER:                 -15.269
REMARK INTRA:                  -1.968
REMARK UNBOUND:                -2.302
REMARK  9 active torsions:
REMARK  status: ('A' for Active; 'I' for Inactive)
REMARK    1  A    between atoms: O6_12  and  C10_19 
REMARK    2  A    between atoms: O7_14  and  C16_29 
REMARK    3  A    between atoms: O9_18  and  C27_40 
REMARK    4  A    between atoms: O10_20  and  C28_41 
REMARK    5  A    between atoms: O12_24  and  C39_52 
REMARK    6  A    between atoms: O13_26  and  C40_53 
REMARK    7  A    between atoms: C34_47  and  C35_48 
REMARK    8  A    between atoms: C35_48  and  C36_49 
REMARK    9  A    between atoms: C36_49  and  C37_50 
ROOT
HETATM    1  C1  RAP A 108       4.701   8.503  12.915  1.00  5.98     0.292 C 
HETATM    2  O1  RAP A 108       4.306   9.588  13.744  1.00  9.08    -0.302 OA
HETATM    3  C2  RAP A 108       4.272   7.064  13.202  1.00  6.42     0.171 C 
HETATM    4  O2  RAP A 108       5.434   8.743  11.958  1.00 14.08    -0.262 OA
HETATM    5  C3  RAP A 108       3.834   6.357  11.928  1.00  5.50     0.033 C 
HETATM    6  O3  RAP A 108       4.653   6.240  15.723  1.00 10.38    -0.264 OA
HETATM    7  C4  RAP A 108       2.461   6.788  11.432  1.00  4.49     0.004 C 
HETATM    8  O4  RAP A 108       1.899   5.287  16.533  1.00 10.60    -0.281 OA
HETATM    9  C5  RAP A 108       1.467   6.590  12.561  1.00  4.19     0.024 C 
HETATM   10  O5  RAP A 108       1.334   8.395  16.685  1.00 10.76    -0.332 OA
HETATM   11  C6  RAP A 108       1.869   7.377  13.770  1.00  3.25     0.105 C 
HETATM   12  N7  RAP A 108       3.199   6.907  14.190  1.00  8.46    -0.307 N 
HETATM   13  C8  RAP A 108       3.482   6.529  15.446  1.00 10.06     0.297 C 
HETATM   14  O8  RAP A 108       3.513  17.646   8.720  1.00 18.31    -0.293 OA
HETATM   15  C9  RAP A 108       2.492   6.370  16.442  1.00 11.13     0.279 C 
HETATM   16  C10 RAP A 108       2.124   7.495  17.426  1.00 16.59     0.246 C 
HETATM   17  C11 RAP A 108       3.384   8.263  18.002  1.00 10.40     0.059 C 
HETATM   18  O11 RAP A 108       2.293  10.655  11.848  1.00  9.49    -0.296 OA
HETATM   19  C12 RAP A 108       2.965   9.564  18.724  1.00 12.17     0.008 C 
HETATM   20  C13 RAP A 108       2.020  10.377  17.851  1.00 12.80     0.030 C 
HETATM   21  C14 RAP A 108       0.870   9.558  17.272  1.00 10.37     0.121 C 
HETATM   22  C15 RAP A 108       0.210  10.329  16.143  1.00  5.94     0.064 C 
HETATM   23  C16 RAP A 108      -0.591  11.565  16.534  1.00  9.79     0.136 C 
HETATM   24  C17 RAP A 108      -1.163  12.259  15.317  1.00 15.52    -0.017 C 
HETATM   25  C18 RAP A 108      -0.713  13.469  15.009  1.00 14.38    -0.006 C 
HETATM   26  C19 RAP A 108      -1.148  14.254  13.846  1.00  9.73    -0.001 C 
HETATM   27  C20 RAP A 108      -0.661  15.476  13.675  1.00 10.26    -0.000 C 
HETATM   28  C21 RAP A 108      -0.987  16.267  12.474  1.00 11.40    -0.005 C 
HETATM   29  C22 RAP A 108      -0.355  17.391  12.190  1.00 17.77    -0.026 C 
HETATM   30  C23 RAP A 108      -0.569  18.186  10.921  1.00 15.64     0.022 C 
HETATM   31  C24 RAP A 108       0.792  18.325  10.261  1.00 14.68     0.012 C 
HETATM   32  C25 RAP A 108       1.582  17.051  10.024  1.00 11.87     0.061 C 
HETATM   33  C26 RAP A 108       3.060  17.361   9.825  1.00 11.65     0.180 C 
HETATM   34  C27 RAP A 108       3.948  17.285  11.063  1.00  8.13     0.203 C 
HETATM   35  C28 RAP A 108       4.440  15.838  11.390  1.00 10.80     0.163 C 
HETATM   36  C29 RAP A 108       3.403  14.991  12.152  1.00  9.60    -0.019 C 
HETATM   37  C30 RAP A 108       2.771  13.953  11.605  1.00  8.55    -0.025 C 
HETATM   38  C31 RAP A 108       1.753  12.986  12.228  1.00  8.43     0.079 C 
HETATM   39  C32 RAP A 108       2.439  11.659  12.552  1.00 10.69     0.157 C 
HETATM   40  C33 RAP A 108       3.359  11.670  13.767  1.00  6.51     0.095 C 
HETATM   41  C34 RAP A 108       4.647  10.912  13.521  1.00  9.62     0.132 C 
HETATM   42  C43 RAP A 108       4.323   7.411  18.907  1.00 11.25     0.005 C 
HETATM   43  C44 RAP A 108      -2.257  11.486  14.559  1.00 14.40     0.029 C 
HETATM   44  C45 RAP A 108      -1.161  19.555  11.226  1.00  9.23     0.005 C 
HETATM   45  C46 RAP A 108       1.028  16.254   8.840  1.00 15.99     0.008 C 
HETATM   46  C47 RAP A 108       3.149  15.448  13.576  1.00 14.60     0.029 C 
HETATM   47  C48 RAP A 108       0.614  12.750  11.223  1.00  9.37     0.013 C 
ENDROOT
BRANCH  41  48
HETATM   48  C35 RAP A 108       5.854  11.196  14.438  1.00  9.58     0.028 C 
HETATM   49  C49 RAP A 108       5.589  10.804  15.864  1.00  8.29     0.003 C 
BRANCH  48  50
HETATM   50  C36 RAP A 108       6.306  12.653  14.359  1.00 10.31     0.003 C 
BRANCH  50  51
HETATM   51  C37 RAP A 108       7.387  12.997  13.331  1.00 22.90     0.003 C 
HETATM   52  C38 RAP A 108       7.934  11.715  12.694  1.00 14.17     0.032 C 
HETATM   53  C39 RAP A 108       9.102  11.973  11.740  1.00 34.20     0.142 C 
HETATM   54  C40 RAP A 108       8.694  13.048  10.674  1.00 38.24     0.138 C 
HETATM   55  C41 RAP A 108       8.108  14.331  11.298  1.00 16.32     0.032 C 
HETATM   56  C42 RAP A 108       6.971  13.999  12.254  1.00 14.05     0.003 C 
BRANCH  53  57
HETATM   57  O12 RAP A 108       9.385  10.747  11.116  1.00 30.82    -0.352 OA
HETATM   58  C52 RAP A 108      10.713  10.350  11.096  1.00 28.14     0.174 C 
ENDBRANCH  53  57
BRANCH  54  59
HETATM   59  O13 RAP A 108       9.839  13.390   9.894  1.00 28.84    -0.382 OA
HETATM   60  HO3 RAP A 108      10.642  13.193  10.392  1.00 13.32     0.210 HD
ENDBRANCH  54  59
ENDBRANCH  50  51
ENDBRANCH  48  50
ENDBRANCH  41  48
BRANCH  35  61
HETATM   61  O10 RAP A 108       4.769  15.203  10.148  1.00 12.16    -0.378 OA
HETATM   62  HO1 RAP A 108       5.646  14.793  10.179  1.00 13.32     0.211 HD
ENDBRANCH  35  61
BRANCH  16  63
HETATM   63  O6  RAP A 108       1.386   6.932  18.514  1.00 14.16    -0.358 OA
HETATM   64  HO6 RAP A 108       1.495   5.977  18.486  1.00 13.32     0.213 HD
ENDBRANCH  16  63
BRANCH  34  65
HETATM   65  O9  RAP A 108       5.095  18.060  10.841  1.00 23.09    -0.344 OA
HETATM   66  C51 RAP A 108       6.078  17.966  11.812  1.00 19.04     0.175 C 
ENDBRANCH  34  65
BRANCH  23  67
HETATM   67  O7  RAP A 108      -1.632  11.152  17.364  1.00 20.17    -0.350 OA
HETATM   68  C50 RAP A 108      -1.941  11.993  18.429  1.00 28.36     0.175 C 
ENDBRANCH  23  67
TORSDOF 9
ENDMDL
MODEL 3
REMARK VINA RESULT:    -8.909      1.689      2.756
REMARK INTER + INTRA:         -15.117
REMARK INTER:                 -12.868
REMARK INTRA:                  -2.249
REMARK UNBOUND:                -2.302
REMARK  9 active torsions:
REMARK  status: ('A' for Active; 'I' for Inactive)
REMARK    1  A    between atoms: O6_12  and  C10_19 
REMARK    2  A    between atoms: O7_14  and  C16_29 
REMARK    3  A    between atoms: O9_18  and  C27_40 
REMARK    4  A    between atoms: O10_20  and  C28_41 
REMARK    5  A    between atoms: O12_24  and  C39_52 
REMARK    6  A    between atoms: O13_26  and  C40_53 
REMARK    7  A    between atoms: C34_47  and  C35_48 
REMARK    8  A    between atoms: C35_48  and  C36_49 
REMARK    9  A    between atoms: C36_49  and  C37_50 
ROOT
HETATM    1  C1  RAP A 108       4.529   8.667  12.747  1.00  5.98     0.292 C 
HETATM    2  O1  RAP A 108       4.125   9.766  13.552  1.00  9.08    -0.302 OA
HETATM    3  C2  RAP A 108       4.127   7.229  13.075  1.00  6.42     0.171 C 
HETATM    4  O2  RAP A 108       5.249   8.894  11.777  1.00 14.08    -0.262 OA
HETATM    5  C3  RAP A 108       3.689   6.483  11.823  1.00  5.50     0.033 C 
HETATM    6  O3  RAP A 108       4.546   6.476  15.612  1.00 10.38    -0.264 OA
HETATM    7  C4  RAP A 108       2.304   6.878  11.330  1.00  4.49     0.004 C 
HETATM    8  O4  RAP A 108       1.816   5.500  16.473  1.00 10.60    -0.281 OA
HETATM    9  C5  RAP A 108       1.324   6.693  12.474  1.00  4.19     0.024 C 
HETATM   10  O5  RAP A 108       1.201   8.601  16.551  1.00 10.76    -0.332 OA
HETATM   11  C6  RAP A 108       1.724   7.517  13.659  1.00  3.25     0.105 C 
HETATM   12  N7  RAP A 108       3.066   7.080  14.077  1.00  8.46    -0.307 N 
HETATM   13  C8  RAP A 108       3.367   6.739  15.339  1.00 10.06     0.297 C 
HETATM   14  O8  RAP A 108       3.151  17.679   8.331  1.00 18.31    -0.293 OA
HETATM   15  C9  RAP A 108       2.390   6.589  16.349  1.00 11.13     0.279 C 
HETATM   16  C10 RAP A 108       2.013   7.733  17.307  1.00 16.59     0.246 C 
HETATM   17  C11 RAP A 108       3.265   8.536  17.851  1.00 10.40     0.059 C 
HETATM   18  O11 RAP A 108       2.076  10.751  11.649  1.00  9.49    -0.296 OA
HETATM   19  C12 RAP A 108       2.831   9.848  18.544  1.00 12.17     0.008 C 
HETATM   20  C13 RAP A 108       1.865  10.623  17.659  1.00 12.80     0.030 C 
HETATM   21  C14 RAP A 108       0.723   9.771  17.114  1.00 10.37     0.121 C 
HETATM   22  C15 RAP A 108       0.040  10.502  15.971  1.00  5.94     0.064 C 
HETATM   23  C16 RAP A 108      -0.778  11.734  16.339  1.00  9.79     0.136 C 
HETATM   24  C17 RAP A 108      -1.373  12.388  15.111  1.00 15.52    -0.017 C 
HETATM   25  C18 RAP A 108      -0.946  13.596  14.768  1.00 14.38    -0.006 C 
HETATM   26  C19 RAP A 108      -1.405  14.345  13.589  1.00  9.73    -0.001 C 
HETATM   27  C20 RAP A 108      -0.940  15.569  13.382  1.00 10.26    -0.000 C 
HETATM   28  C21 RAP A 108      -1.290  16.324  12.165  1.00 11.40    -0.005 C 
HETATM   29  C22 RAP A 108      -0.680  17.450  11.846  1.00 17.77    -0.026 C 
HETATM   30  C23 RAP A 108      -0.918  18.209  10.559  1.00 15.64     0.022 C 
HETATM   31  C24 RAP A 108       0.434  18.353   9.882  1.00 14.68     0.012 C 
HETATM   32  C25 RAP A 108       1.243  17.087   9.669  1.00 11.87     0.061 C 
HETATM   33  C26 RAP A 108       2.713  17.414   9.449  1.00 11.65     0.180 C 
HETATM   34  C27 RAP A 108       3.614  17.385  10.679  1.00  8.13     0.203 C 
HETATM   35  C28 RAP A 108       4.133  15.955  11.038  1.00 10.80     0.163 C 
HETATM   36  C29 RAP A 108       3.117  15.111  11.831  1.00  9.60    -0.019 C 
HETATM   37  C30 RAP A 108       2.497  14.049  11.317  1.00  8.55    -0.025 C 
HETATM   38  C31 RAP A 108       1.502  13.083  11.975  1.00  8.43     0.079 C 
HETATM   39  C32 RAP A 108       2.212  11.775  12.325  1.00 10.69     0.157 C 
HETATM   40  C33 RAP A 108       3.143  11.832  13.531  1.00  6.51     0.095 C 
HETATM   41  C34 RAP A 108       4.441  11.089  13.292  1.00  9.62     0.132 C 
HETATM   42  C43 RAP A 108       4.227   7.723  18.768  1.00 11.25     0.005 C 
HETATM   43  C44 RAP A 108      -2.461  11.578  14.383  1.00 14.40     0.029 C 
HETATM   44  C45 RAP A 108      -1.530  19.575  10.835  1.00  9.23     0.005 C 
HETATM   45  C46 RAP A 108       0.690  16.250   8.512  1.00 15.99     0.008 C 
HETATM   46  C47 RAP A 108       2.869  15.601  13.245  1.00 14.60     0.029 C 
HETATM   47  C48 RAP A 108       0.357  12.802  10.988  1.00  9.37     0.013 C 
ENDROOT
BRANCH  41  48
HETATM   48  C35 RAP A 108       5.652  11.416  14.189  1.00  9.58     0.028 C 
HETATM   49  C49 RAP A 108       6.864  10.608  13.825  1.00  8.29     0.003 C 
BRANCH  48  50
HETATM   50  C36 RAP A 108       5.328  11.255  15.673  1.00 10.31     0.003 C 
BRANCH  50  51
HETATM   51  C37 RAP A 108       5.301  12.525  16.527  1.00 22.90     0.003 C 
HETATM   52  C38 RAP A 108       6.155  13.617  15.873  1.00 14.17     0.032 C 
HETATM   53  C39 RAP A 108       6.271  14.879  16.730  1.00 34.20     0.142 C 
HETATM   54  C40 RAP A 108       4.842  15.389  17.127  1.00 38.24     0.138 C 
HETATM   55  C41 RAP A 108       3.958  14.292  17.754  1.00 16.32     0.032 C 
HETATM   56  C42 RAP A 108       3.909  13.059  16.864  1.00 14.05     0.003 C 
BRANCH  53  57
HETATM   57  O12 RAP A 108       6.932  15.837  15.944  1.00 30.82    -0.352 OA
HETATM   58  C52 RAP A 108       6.374  16.121  14.707  1.00 28.14     0.174 C 
ENDBRANCH  53  57
BRANCH  54  59
HETATM   59  O13 RAP A 108       4.972  16.468  18.051  1.00 28.84    -0.382 OA
HETATM   60  HO3 RAP A 108       5.764  16.343  18.588  1.00 13.32     0.210 HD
ENDBRANCH  54  59
ENDBRANCH  50  51
ENDBRANCH  48  50
ENDBRANCH  41  48
BRANCH  35  61
HETATM   61  O10 RAP A 108       4.461  15.294   9.809  1.00 12.16    -0.378 OA
HETATM   62  HO1 RAP A 108       4.097  14.396   9.780  1.00 13.32     0.211 HD
ENDBRANCH  35  61
BRANCH  16  63
HETATM   63  O6  RAP A 108       1.294   7.187  18.416  1.00 14.16    -0.358 OA
HETATM   64  HO6 RAP A 108       1.850   6.521  18.832  1.00 13.32     0.213 HD
ENDBRANCH  16  63
BRANCH  34  65
HETATM   65  O9  RAP A 108       4.746  18.173  10.426  1.00 23.09    -0.344 OA
HETATM   66  C51 RAP A 108       5.683  18.218  11.444  1.00 19.04     0.175 C 
ENDBRANCH  34  65
BRANCH  23  67
HETATM   67  O7  RAP A 108      -1.803  11.326  17.190  1.00 20.17    -0.350 OA
HETATM   68  C50 RAP A 108      -2.243  12.264  18.119  1.00 28.36     0.175 C 
ENDBRANCH  23  67
TORSDOF 9
ENDMDL
