MODEL 1
REMARK VINA RESULT:    -6.454      0.000      0.000
REMARK INTER + INTRA:         -11.611
REMARK INTER:                  -9.283
REMARK INTRA:                  -2.328
REMARK UNBOUND:                -2.328
REMARK  9 active torsions:
REMARK  status: ('A' for Active; 'I' for Inactive)
REMARK    1  A    between atoms: O6_12  and  C10_19 
REMARK    2  A    between atoms: O7_14  and  C16_29 
REMARK    3  A    between atoms: O9_18  and  C27_40 
REMARK    4  A    between atoms: O10_20  and  C28_41 
REMARK    5  A    between atoms: O12_24  and  C39_52 
REMARK    6  A    between atoms: O13_26  and  C40_53 
REMARK    7  A    between atoms: C34_47  and  C35_48 
REMARK    8  A    between atoms: C35_48  and  C36_49 
REMARK    9  A    between atoms: C36_49  and  C37_50 
ROOT
HETATM    1  C1  RAP A 108       6.107  -0.727  -6.196  1.00  5.98     0.292 C 
HETATM    2  O1  RAP A 108       5.960  -0.329  -7.553  1.00  9.08    -0.302 OA
HETATM    3  C2  RAP A 108       7.453  -0.669  -5.474  1.00  6.42     0.171 C 
HETATM    4  O2  RAP A 108       5.117  -1.156  -5.609  1.00 14.08    -0.262 OA
HETATM    5  C3  RAP A 108       7.300  -0.096  -4.073  1.00  5.50     0.033 C 
HETATM    6  O3  RAP A 108       9.504  -1.778  -6.793  1.00 10.38    -0.264 OA
HETATM    7  C4  RAP A 108       7.093   1.412  -4.048  1.00  4.49     0.004 C 
HETATM    8  O4  RAP A 108      11.526   0.469  -6.886  1.00 10.60    -0.281 OA
HETATM    9  C5  RAP A 108       8.240   2.058  -4.804  1.00  4.19     0.024 C 
HETATM   10  O5  RAP A 108       9.549   1.587  -9.087  1.00 10.76    -0.332 OA
HETATM   11  C6  RAP A 108       8.305   1.551  -6.212  1.00  3.25     0.105 C 
HETATM   12  N7  RAP A 108       8.505   0.093  -6.155  1.00  8.46    -0.307 N 
HETATM   13  C8  RAP A 108       9.476  -0.541  -6.829  1.00 10.06     0.297 C 
HETATM   14  O8  RAP A 108      -2.749   3.181  -9.184  1.00 18.31    -0.293 OA
HETATM   15  C9  RAP A 108      10.510   0.140  -7.510  1.00 11.13     0.279 C 
HETATM   16  C10 RAP A 108      10.422   0.484  -9.008  1.00 16.59     0.246 C 
HETATM   17  C11 RAP A 108       9.849  -0.697  -9.893  1.00 10.40     0.059 C 
HETATM   18  O11 RAP A 108       4.614   2.239  -6.933  1.00  9.49    -0.296 OA
HETATM   19  C12 RAP A 108       9.487  -0.208 -11.314  1.00 12.17     0.008 C 
HETATM   20  C13 RAP A 108       8.640   1.055 -11.243  1.00 12.80     0.030 C 
HETATM   21  C14 RAP A 108       9.216   2.122 -10.318  1.00 10.37     0.121 C 
HETATM   22  C15 RAP A 108       8.154   3.164 -10.015  1.00  5.94     0.064 C 
HETATM   23  C16 RAP A 108       7.748   4.081 -11.163  1.00  9.79     0.136 C 
HETATM   24  C17 RAP A 108       6.660   5.045 -10.740  1.00 15.52    -0.017 C 
HETATM   25  C18 RAP A 108       5.460   4.926 -11.293  1.00 14.38    -0.006 C 
HETATM   26  C19 RAP A 108       4.299   5.765 -10.966  1.00  9.73    -0.001 C 
HETATM   27  C20 RAP A 108       3.164   5.582 -11.627  1.00 10.26    -0.000 C 
HETATM   28  C21 RAP A 108       1.943   6.326 -11.270  1.00 11.40    -0.005 C 
HETATM   29  C22 RAP A 108       0.765   6.012 -11.776  1.00 17.77    -0.026 C 
HETATM   30  C23 RAP A 108      -0.537   6.666 -11.366  1.00 15.64     0.022 C 
HETATM   31  C24 RAP A 108      -1.458   5.550 -10.905  1.00 14.68     0.012 C 
HETATM   32  C25 RAP A 108      -0.925   4.601  -9.848  1.00 11.87     0.061 C 
HETATM   33  C26 RAP A 108      -1.716   3.300  -9.840  1.00 11.65     0.180 C 
HETATM   34  C27 RAP A 108      -1.157   2.153 -10.675  1.00  8.13     0.203 C 
HETATM   35  C28 RAP A 108      -0.058   1.323  -9.937  1.00 10.80     0.163 C 
HETATM   36  C29 RAP A 108       1.341   1.967  -9.989  1.00  9.60    -0.019 C 
HETATM   37  C30 RAP A 108       1.939   2.491  -8.920  1.00  8.55    -0.025 C 
HETATM   38  C31 RAP A 108       3.331   3.125  -8.788  1.00  8.43     0.079 C 
HETATM   39  C32 RAP A 108       4.284   2.135  -8.119  1.00 10.69     0.157 C 
HETATM   40  C33 RAP A 108       4.757   0.980  -8.993  1.00  6.51     0.095 C 
HETATM   41  C34 RAP A 108       4.763  -0.340  -8.250  1.00  9.62     0.132 C 
HETATM   42  C43 RAP A 108      10.745  -1.970  -9.962  1.00 11.25     0.005 C 
HETATM   43  C44 RAP A 108       7.074   6.110  -9.709  1.00 14.40     0.029 C 
HETATM   44  C45 RAP A 108      -1.155   7.430 -12.528  1.00  9.23     0.005 C 
HETATM   45  C46 RAP A 108      -0.921   5.246  -8.460  1.00 15.99     0.008 C 
HETATM   46  C47 RAP A 108       1.975   1.970 -11.367  1.00 14.60     0.029 C 
HETATM   47  C48 RAP A 108       3.218   4.396  -7.931  1.00  9.37     0.013 C 
ENDROOT
BRANCH  41  48
HETATM   48  C35 RAP A 108       4.767  -1.646  -9.070  1.00  9.58     0.028 C 
HETATM   49  C49 RAP A 108       6.150  -2.201  -9.249  1.00  8.29     0.003 C 
BRANCH  48  50
HETATM   50  C36 RAP A 108       4.079  -1.477 -10.424  1.00 10.31     0.003 C 
BRANCH  50  51
HETATM   51  C37 RAP A 108       2.611  -1.897 -10.523  1.00 22.90     0.003 C 
HETATM   52  C38 RAP A 108       2.060  -1.559 -11.913  1.00 14.17     0.032 C 
HETATM   53  C39 RAP A 108       0.563  -1.844 -12.048  1.00 34.20     0.142 C 
HETATM   54  C40 RAP A 108       0.259  -3.322 -11.622  1.00 38.24     0.138 C 
HETATM   55  C41 RAP A 108       0.837  -3.688 -10.240  1.00 16.32     0.032 C 
HETATM   56  C42 RAP A 108       2.321  -3.355 -10.167  1.00 14.05     0.003 C 
BRANCH  53  57
HETATM   57  O12 RAP A 108       0.240  -1.648 -13.400  1.00 30.82    -0.352 OA
HETATM   58  C52 RAP A 108       0.845  -0.576 -14.037  1.00 28.14     0.174 C 
ENDBRANCH  53  57
BRANCH  54  59
HETATM   59  O13 RAP A 108      -1.154  -3.521 -11.604  1.00 28.84    -0.382 OA
HETATM   60  HO3 RAP A 108      -1.586  -2.832 -12.123  1.00 13.32     0.210 HD
ENDBRANCH  54  59
ENDBRANCH  50  51
ENDBRANCH  48  50
ENDBRANCH  41  48
BRANCH  35  61
HETATM   61  O10 RAP A 108      -0.473   1.171  -8.574  1.00 12.16    -0.378 OA
HETATM   62  HO1 RAP A 108      -0.956   1.951  -8.261  1.00 13.32     0.211 HD
ENDBRANCH  35  61
BRANCH  16  63
HETATM   63  O6  RAP A 108      11.729   0.825  -9.479  1.00 14.16    -0.358 OA
HETATM   64  HO6 RAP A 108      12.372   0.360  -8.936  1.00 13.32     0.213 HD
ENDBRANCH  16  63
BRANCH  34  65
HETATM   65  O9  RAP A 108      -2.201   1.264 -10.974  1.00 23.09    -0.344 OA
HETATM   66  C51 RAP A 108      -2.179   0.724 -12.248  1.00 19.04     0.175 C 
ENDBRANCH  34  65
BRANCH  23  67
HETATM   67  O7  RAP A 108       8.877   4.798 -11.554  1.00 20.17    -0.350 OA
HETATM   68  C50 RAP A 108       9.119   4.866 -12.923  1.00 28.36     0.175 C 
ENDBRANCH  23  67
TORSDOF 9
ENDMDL
MODEL 2
REMARK VINA RESULT:    -6.179     10.696     16.280
REMARK INTER + INTRA:         -11.215
REMARK INTER:                  -9.715
REMARK INTRA:                  -1.500
REMARK UNBOUND:                -2.328
REMARK  9 active torsions:
REMARK  status: ('A' for Active; 'I' for Inactive)
REMARK    1  A    between atoms: O6_12  and  C10_19 
REMARK    2  A    between atoms: O7_14  and  C16_29 
REMARK    3  A    between atoms: O9_18  and  C27_40 
REMARK    4  A    between atoms: O10_20  and  C28_41 
REMARK    5  A    between atoms: O12_24  and  C39_52 
REMARK    6  A    between atoms: O13_26  and  C40_53 
REMARK    7  A    between atoms: C34_47  and  C35_48 
REMARK    8  A    between atoms: C35_48  and  C36_49 
REMARK    9  A    between atoms: C36_49  and  C37_50 
ROOT
HETATM    1  C1  RAP A 108      11.239  10.653   0.069  1.00  5.98     0.292 C 
HETATM    2  O1  RAP A 108      12.183   9.596   0.182  1.00  9.08    -0.302 OA
HETATM    3  C2  RAP A 108      11.667  12.115  -0.050  1.00  6.42     0.171 C 
HETATM    4  O2  RAP A 108      10.044  10.367   0.101  1.00 14.08    -0.262 OA
HETATM    5  C3  RAP A 108      10.855  12.839  -1.114  1.00  5.50     0.033 C 
HETATM    6  O3  RAP A 108      13.469  12.929   1.757  1.00 10.38    -0.264 OA
HETATM    7  C4  RAP A 108      11.261  12.486  -2.538  1.00  4.49     0.004 C 
HETATM    8  O4  RAP A 108      15.687  14.043   0.028  1.00 10.60    -0.281 OA
HETATM    9  C5  RAP A 108      12.750  12.746  -2.683  1.00  4.19     0.024 C 
HETATM   10  O5  RAP A 108      16.254  10.973  -0.480  1.00 10.76    -0.332 OA
HETATM   11  C6  RAP A 108      13.532  11.944  -1.690  1.00  3.25     0.105 C 
HETATM   12  N7  RAP A 108      13.087  12.339  -0.343  1.00  8.46    -0.307 N 
HETATM   13  C8  RAP A 108      13.933  12.706   0.631  1.00 10.06     0.297 C 
HETATM   14  O8  RAP A 108       8.850   1.571  -3.730  1.00 18.31    -0.293 OA
HETATM   15  C9  RAP A 108      15.310  12.928   0.410  1.00 11.13     0.279 C 
HETATM   16  C10 RAP A 108      16.367  11.830   0.632  1.00 16.59     0.246 C 
HETATM   17  C11 RAP A 108      16.137  10.995   1.957  1.00 10.40     0.059 C 
HETATM   18  O11 RAP A 108      11.843   8.637  -2.603  1.00  9.49    -0.296 OA
HETATM   19  C12 RAP A 108      17.017   9.723   1.978  1.00 12.17     0.008 C 
HETATM   20  C13 RAP A 108      16.882   8.962   0.667  1.00 12.80     0.030 C 
HETATM   21  C14 RAP A 108      17.045   9.842  -0.568  1.00 10.37     0.121 C 
HETATM   22  C15 RAP A 108      16.535   9.104  -1.794  1.00  5.94     0.064 C 
HETATM   23  C16 RAP A 108      17.364   7.919  -2.273  1.00  9.79     0.136 C 
HETATM   24  C17 RAP A 108      16.729   7.252  -3.474  1.00 15.52    -0.017 C 
HETATM   25  C18 RAP A 108      16.264   6.017  -3.339  1.00 14.38    -0.006 C 
HETATM   26  C19 RAP A 108      15.597   5.252  -4.402  1.00  9.73    -0.001 C 
HETATM   27  C20 RAP A 108      15.221   4.004  -4.159  1.00 10.26    -0.000 C 
HETATM   28  C21 RAP A 108      14.461   3.226  -5.154  1.00 11.40    -0.005 C 
HETATM   29  C22 RAP A 108      13.907   2.066  -4.854  1.00 17.77    -0.026 C 
HETATM   30  C23 RAP A 108      13.026   1.278  -5.798  1.00 15.64     0.022 C 
HETATM   31  C24 RAP A 108      11.705   1.058  -5.080  1.00 14.68     0.012 C 
HETATM   32  C25 RAP A 108      11.008   2.283  -4.519  1.00 11.87     0.061 C 
HETATM   33  C26 RAP A 108      10.003   1.888  -3.445  1.00 11.65     0.180 C 
HETATM   34  C27 RAP A 108      10.495   1.919  -2.001  1.00  8.13     0.203 C 
HETATM   35  C28 RAP A 108      10.422   3.337  -1.348  1.00 10.80     0.163 C 
HETATM   36  C29 RAP A 108      11.611   4.246  -1.713  1.00  9.60    -0.019 C 
HETATM   37  C30 RAP A 108      11.492   5.316  -2.499  1.00  8.55    -0.025 C 
HETATM   38  C31 RAP A 108      12.552   6.343  -2.924  1.00  8.43     0.079 C 
HETATM   39  C32 RAP A 108      12.370   7.630  -2.120  1.00 10.69     0.157 C 
HETATM   40  C33 RAP A 108      12.828   7.573  -0.667  1.00  6.51     0.095 C 
HETATM   41  C34 RAP A 108      11.854   8.254   0.272  1.00  9.62     0.132 C 
HETATM   42  C43 RAP A 108      16.299  11.795   3.284  1.00 11.25     0.005 C 
HETATM   43  C44 RAP A 108      16.715   8.082  -4.770  1.00 14.40     0.029 C 
HETATM   44  C45 RAP A 108      13.669  -0.052  -6.163  1.00  9.23     0.005 C 
HETATM   45  C46 RAP A 108      10.334   3.104  -5.621  1.00 15.99     0.008 C 
HETATM   46  C47 RAP A 108      12.935   3.812  -1.115  1.00 14.60     0.029 C 
HETATM   47  C48 RAP A 108      12.383   6.638  -4.422  1.00  9.37     0.013 C 
ENDROOT
BRANCH  41  48
HETATM   48  C35 RAP A 108      11.914   7.906   1.772  1.00  9.58     0.028 C 
HETATM   49  C49 RAP A 108      11.211   6.617   2.086  1.00  8.29     0.003 C 
BRANCH  48  50
HETATM   50  C36 RAP A 108      11.374   9.036   2.647  1.00 10.31     0.003 C 
BRANCH  50  51
HETATM   51  C37 RAP A 108      12.233   9.477   3.835  1.00 22.90     0.003 C 
HETATM   52  C38 RAP A 108      11.443   9.326   5.140  1.00 14.17     0.032 C 
HETATM   53  C39 RAP A 108      12.198   9.858   6.359  1.00 34.20     0.142 C 
HETATM   54  C40 RAP A 108      13.620   9.203   6.437  1.00 38.24     0.138 C 
HETATM   55  C41 RAP A 108      14.413   9.315   5.120  1.00 16.32     0.032 C 
HETATM   56  C42 RAP A 108      13.596   8.794   3.947  1.00 14.05     0.003 C 
BRANCH  53  57
HETATM   57  O12 RAP A 108      11.434   9.507   7.485  1.00 30.82    -0.352 OA
HETATM   58  C52 RAP A 108      11.187  10.511   8.409  1.00 28.14     0.174 C 
ENDBRANCH  53  57
BRANCH  54  59
HETATM   59  O13 RAP A 108      14.363   9.824   7.484  1.00 28.84    -0.382 OA
HETATM   60  HO3 RAP A 108      15.271   9.495   7.477  1.00 13.32     0.210 HD
ENDBRANCH  54  59
ENDBRANCH  50  51
ENDBRANCH  48  50
ENDBRANCH  41  48
BRANCH  35  61
HETATM   61  O10 RAP A 108       9.196   3.946  -1.773  1.00 12.16    -0.378 OA
HETATM   62  HO1 RAP A 108       9.134   4.865  -1.475  1.00 13.32     0.211 HD
ENDBRANCH  35  61
BRANCH  16  63
HETATM   63  O6  RAP A 108      17.660  12.440   0.686  1.00 14.16    -0.358 OA
HETATM   64  HO6 RAP A 108      17.692  13.002   1.466  1.00 13.32     0.213 HD
ENDBRANCH  16  63
BRANCH  34  65
HETATM   65  O9  RAP A 108       9.679   1.078  -1.231  1.00 23.09    -0.344 OA
HETATM   66  C51 RAP A 108      10.348   0.200  -0.394  1.00 19.04     0.175 C 
ENDBRANCH  34  65
BRANCH  23  67
HETATM   67  O7  RAP A 108      18.627   8.395  -2.620  1.00 20.17    -0.350 OA
HETATM   68  C50 RAP A 108      19.713   7.683  -2.119  1.00 28.36     0.175 C 
ENDBRANCH  23  67
TORSDOF 9
ENDMDL
MODEL 3
REMARK VINA RESULT:    -6.030      6.067     11.358
REMARK INTER + INTRA:         -11.002
REMARK INTER:                  -8.249
REMARK INTRA:                  -2.753
REMARK UNBOUND:                -2.328
REMARK  9 active torsions:
REMARK  status: ('A' for Active; 'I' for Inactive)
REMARK    1  A    between atoms: O6_12  and  C10_19 
REMARK    2  A    between atoms: O7_14  and  C16_29 
REMARK    3  A    between atoms: O9_18  and  C27_40 
REMARK    4  A    between atoms: O10_20  and  C28_41 
REMARK    5  A    between atoms: O12_24  and  C39_52 
REMARK    6  A    between atoms: O13_26  and  C40_53 
REMARK    7  A    between atoms: C34_47  and  C35_48 
REMARK    8  A    between atoms: C35_48  and  C36_49 
REMARK    9  A    between atoms: C36_49  and  C37_50 
ROOT
HETATM    1  C1  RAP A 108      13.514  -3.272  -0.910  1.00  5.98     0.292 C 
HETATM    2  O1  RAP A 108      13.391  -2.225  -1.863  1.00  9.08    -0.302 OA
HETATM    3  C2  RAP A 108      14.157  -3.053   0.459  1.00  6.42     0.171 C 
HETATM    4  O2  RAP A 108      13.113  -4.390  -1.225  1.00 14.08    -0.262 OA
HETATM    5  C3  RAP A 108      13.347  -3.723   1.559  1.00  5.50     0.033 C 
HETATM    6  O3  RAP A 108      16.530  -1.810   0.421  1.00 10.38    -0.264 OA
HETATM    7  C4  RAP A 108      12.067  -2.980   1.914  1.00  4.49     0.004 C 
HETATM    8  O4  RAP A 108      16.085   0.527   2.288  1.00 10.60    -0.281 OA
HETATM    9  C5  RAP A 108      12.433  -1.551   2.269  1.00  4.19     0.024 C 
HETATM   10  O5  RAP A 108      14.454   1.641  -0.181  1.00 10.76    -0.332 OA
HETATM   11  C6  RAP A 108      13.140  -0.882   1.131  1.00  3.25     0.105 C 
HETATM   12  N7  RAP A 108      14.362  -1.653   0.847  1.00  8.46    -0.307 N 
HETATM   13  C8  RAP A 108      15.578  -1.094   0.758  1.00 10.06     0.297 C 
HETATM   14  O8  RAP A 108       5.673  -3.426  -7.321  1.00 18.31    -0.293 OA
HETATM   15  C9  RAP A 108      15.834   0.250   1.109  1.00 11.13     0.279 C 
HETATM   16  C10 RAP A 108      15.816   1.389   0.073  1.00 16.59     0.246 C 
HETATM   17  C11 RAP A 108      16.539   1.016  -1.285  1.00 10.40     0.059 C 
HETATM   18  O11 RAP A 108      10.483  -1.828  -1.450  1.00  9.49    -0.296 OA
HETATM   19  C12 RAP A 108      16.227   2.052  -2.389  1.00 12.17     0.008 C 
HETATM   20  C13 RAP A 108      14.729   2.309  -2.469  1.00 12.80     0.030 C 
HETATM   21  C14 RAP A 108      14.087   2.593  -1.115  1.00 10.37     0.121 C 
HETATM   22  C15 RAP A 108      12.578   2.467  -1.227  1.00  5.94     0.064 C 
HETATM   23  C16 RAP A 108      11.859   3.546  -2.028  1.00  9.79     0.136 C 
HETATM   24  C17 RAP A 108      10.369   3.283  -2.093  1.00 15.52    -0.017 C 
HETATM   25  C18 RAP A 108       9.830   2.990  -3.269  1.00 14.38    -0.006 C 
HETATM   26  C19 RAP A 108       8.409   2.683  -3.487  1.00  9.73    -0.001 C 
HETATM   27  C20 RAP A 108       7.981   2.456  -4.720  1.00 10.26    -0.000 C 
HETATM   28  C21 RAP A 108       6.589   2.045  -4.983  1.00 11.40    -0.005 C 
HETATM   29  C22 RAP A 108       6.202   1.621  -6.172  1.00 17.77    -0.026 C 
HETATM   30  C23 RAP A 108       4.820   1.085  -6.472  1.00 15.64     0.022 C 
HETATM   31  C24 RAP A 108       5.009  -0.308  -7.048  1.00 14.68     0.012 C 
HETATM   32  C25 RAP A 108       5.849  -1.284  -6.245  1.00 11.87     0.061 C 
HETATM   33  C26 RAP A 108       6.350  -2.420  -7.126  1.00 11.65     0.180 C 
HETATM   34  C27 RAP A 108       7.735  -2.251  -7.742  1.00  8.13     0.203 C 
HETATM   35  C28 RAP A 108       8.898  -2.670  -6.786  1.00 10.80     0.163 C 
HETATM   36  C29 RAP A 108       9.280  -1.580  -5.766  1.00  9.60    -0.019 C 
HETATM   37  C30 RAP A 108       9.037  -1.691  -4.460  1.00  8.55    -0.025 C 
HETATM   38  C31 RAP A 108       9.387  -0.732  -3.313  1.00  8.43     0.079 C 
HETATM   39  C32 RAP A 108      10.595  -1.269  -2.546  1.00 10.69     0.157 C 
HETATM   40  C33 RAP A 108      11.941  -1.121  -3.246  1.00  6.51     0.095 C 
HETATM   41  C34 RAP A 108      12.801  -2.360  -3.109  1.00  9.62     0.132 C 
HETATM   42  C43 RAP A 108      18.074   0.775  -1.176  1.00 11.25     0.005 C 
HETATM   43  C44 RAP A 108       9.608   3.416  -0.762  1.00 14.40     0.029 C 
HETATM   44  C45 RAP A 108       4.089   1.982  -7.461  1.00  9.23     0.005 C 
HETATM   45  C46 RAP A 108       5.084  -1.827  -5.036  1.00 15.99     0.008 C 
HETATM   46  C47 RAP A 108       9.945  -0.361  -6.375  1.00 14.60     0.029 C 
HETATM   47  C48 RAP A 108       8.178  -0.626  -2.369  1.00  9.37     0.013 C 
ENDROOT
BRANCH  41  48
HETATM   48  C35 RAP A 108      13.961  -2.564  -4.104  1.00  9.58     0.028 C 
HETATM   49  C49 RAP A 108      14.152  -4.009  -4.466  1.00  8.29     0.003 C 
BRANCH  48  50
HETATM   50  C36 RAP A 108      15.270  -1.963  -3.594  1.00 10.31     0.003 C 
BRANCH  50  51
HETATM   51  C37 RAP A 108      15.806  -0.729  -4.322  1.00 22.90     0.003 C 
HETATM   52  C38 RAP A 108      17.222  -1.001  -4.845  1.00 14.17     0.032 C 
HETATM   53  C39 RAP A 108      17.869   0.229  -5.483  1.00 34.20     0.142 C 
HETATM   54  C40 RAP A 108      16.924   0.821  -6.585  1.00 38.24     0.138 C 
HETATM   55  C41 RAP A 108      15.486   1.067  -6.083  1.00 16.32     0.032 C 
HETATM   56  C42 RAP A 108      14.914  -0.186  -5.438  1.00 14.05     0.003 C 
BRANCH  53  57
HETATM   57  O12 RAP A 108      19.075  -0.207  -6.056  1.00 30.82    -0.352 OA
HETATM   58  C52 RAP A 108      18.986  -1.196  -7.022  1.00 28.14     0.174 C 
ENDBRANCH  53  57
BRANCH  54  59
HETATM   59  O13 RAP A 108      17.470   2.052  -7.057  1.00 28.84    -0.382 OA
HETATM   60  HO3 RAP A 108      17.102   2.259  -7.925  1.00 13.32     0.210 HD
ENDBRANCH  54  59
ENDBRANCH  50  51
ENDBRANCH  48  50
ENDBRANCH  41  48
BRANCH  35  61
HETATM   61  O10 RAP A 108       8.484  -3.857  -6.098  1.00 12.16    -0.378 OA
HETATM   62  HO1 RAP A 108       8.076  -3.649  -5.244  1.00 13.32     0.211 HD
ENDBRANCH  35  61
BRANCH  16  63
HETATM   63  O6  RAP A 108      16.458   2.536   0.640  1.00 14.16    -0.358 OA
HETATM   64  HO6 RAP A 108      15.863   2.918   1.291  1.00 13.32     0.213 HD
ENDBRANCH  16  63
BRANCH  34  65
HETATM   65  O9  RAP A 108       7.827  -3.074  -8.874  1.00 23.09    -0.344 OA
HETATM   66  C51 RAP A 108       9.041  -3.042  -9.539  1.00 19.04     0.175 C 
ENDBRANCH  34  65
BRANCH  23  67
HETATM   67  O7  RAP A 108      12.087   4.767  -1.397  1.00 20.17    -0.350 OA
HETATM   68  C50 RAP A 108      12.266   5.867  -2.232  1.00 28.36     0.175 C 
ENDBRANCH  23  67
TORSDOF 9
ENDMDL
MODEL 4
REMARK VINA RESULT:    -6.030     22.824     26.904
REMARK INTER + INTRA:         -11.001
REMARK INTER:                  -9.089
REMARK INTRA:                  -1.912
REMARK UNBOUND:                -2.328
REMARK  9 active torsions:
REMARK  status: ('A' for Active; 'I' for Inactive)
REMARK    1  A    between atoms: O6_12  and  C10_19 
REMARK    2  A    between atoms: O7_14  and  C16_29 
REMARK    3  A    between atoms: O9_18  and  C27_40 
REMARK    4  A    between atoms: O10_20  and  C28_41 
REMARK    5  A    between atoms: O12_24  and  C39_52 
REMARK    6  A    between atoms: O13_26  and  C40_53 
REMARK    7  A    between atoms: C34_47  and  C35_48 
REMARK    8  A    between atoms: C35_48  and  C36_49 
REMARK    9  A    between atoms: C36_49  and  C37_50 
ROOT
HETATM    1  C1  RAP A 108       2.679  18.107  11.977  1.00  5.98     0.292 C 
HETATM    2  O1  RAP A 108       3.183  16.917  11.385  1.00  9.08    -0.302 OA
HETATM    3  C2  RAP A 108       1.250  18.207  12.511  1.00  6.42     0.171 C 
HETATM    4  O2  RAP A 108       3.419  19.087  12.026  1.00 14.08    -0.262 OA
HETATM    5  C3  RAP A 108       1.217  18.908  13.860  1.00  5.50     0.033 C 
HETATM    6  O3  RAP A 108      -0.657  17.354  10.834  1.00 10.38    -0.264 OA
HETATM    7  C4  RAP A 108       1.708  18.042  15.011  1.00  4.49     0.004 C 
HETATM    8  O4  RAP A 108      -2.129  15.298  12.493  1.00 10.60    -0.281 OA
HETATM    9  C5  RAP A 108       0.896  16.759  15.018  1.00  4.19     0.024 C 
HETATM   10  O5  RAP A 108       0.447  13.573  11.868  1.00 10.76    -0.332 OA
HETATM   11  C6  RAP A 108       1.028  16.038  13.712  1.00  3.25     0.105 C 
HETATM   12  N7  RAP A 108       0.536  16.933  12.652  1.00  8.46    -0.307 N 
HETATM   13  C8  RAP A 108      -0.378  16.562  11.743  1.00 10.06     0.297 C 
HETATM   14  O8  RAP A 108      12.558  16.046  12.855  1.00 18.31    -0.293 OA
HETATM   15  C9  RAP A 108      -1.090  15.344  11.822  1.00 11.13     0.279 C 
HETATM   16  C10 RAP A 108      -0.624  14.068  11.099  1.00 16.59     0.246 C 
HETATM   17  C11 RAP A 108      -0.124  14.331   9.619  1.00 10.40     0.059 C 
HETATM   18  O11 RAP A 108       4.850  16.147  13.713  1.00  9.49    -0.296 OA
HETATM   19  C12 RAP A 108       0.618  13.099   9.051  1.00 12.17     0.008 C 
HETATM   20  C13 RAP A 108       1.664  12.605  10.041  1.00 12.80     0.030 C 
HETATM   21  C14 RAP A 108       1.130  12.441  11.460  1.00 10.37     0.121 C 
HETATM   22  C15 RAP A 108       2.289  12.314  12.432  1.00  5.94     0.064 C 
HETATM   23  C16 RAP A 108       3.100  11.026  12.365  1.00  9.79     0.136 C 
HETATM   24  C17 RAP A 108       4.244  11.042  13.357  1.00 15.52    -0.017 C 
HETATM   25  C18 RAP A 108       5.485  11.061  12.889  1.00 14.38    -0.006 C 
HETATM   26  C19 RAP A 108       6.695  11.108  13.723  1.00  9.73    -0.001 C 
HETATM   27  C20 RAP A 108       7.883  11.071  13.137  1.00 10.26    -0.000 C 
HETATM   28  C21 RAP A 108       9.126  11.215  13.917  1.00 11.40    -0.005 C 
HETATM   29  C22 RAP A 108      10.298  11.384  13.334  1.00 17.77    -0.026 C 
HETATM   30  C23 RAP A 108      11.587  11.647  14.081  1.00 15.64     0.022 C 
HETATM   31  C24 RAP A 108      12.152  12.945  13.530  1.00 14.68     0.012 C 
HETATM   32  C25 RAP A 108      11.232  14.152  13.513  1.00 11.87     0.061 C 
HETATM   33  C26 RAP A 108      11.731  15.199  12.527  1.00 11.65     0.180 C 
HETATM   34  C27 RAP A 108      11.143  15.151  11.121  1.00  8.13     0.203 C 
HETATM   35  C28 RAP A 108       9.772  15.888  10.992  1.00 10.80     0.163 C 
HETATM   36  C29 RAP A 108       8.571  15.045  11.461  1.00  9.60    -0.019 C 
HETATM   37  C30 RAP A 108       7.878  15.320  12.566  1.00  8.55    -0.025 C 
HETATM   38  C31 RAP A 108       6.643  14.617  13.148  1.00  8.43     0.079 C 
HETATM   39  C32 RAP A 108       5.394  15.448  12.852  1.00 10.69     0.157 C 
HETATM   40  C33 RAP A 108       4.895  15.401  11.412  1.00  6.51     0.095 C 
HETATM   41  C34 RAP A 108       4.473  16.764  10.904  1.00  9.62     0.132 C 
HETATM   42  C43 RAP A 108      -1.219  14.819   8.625  1.00 11.25     0.005 C 
HETATM   43  C44 RAP A 108       3.842  11.004  14.842  1.00 14.40     0.029 C 
HETATM   44  C45 RAP A 108      12.574  10.505  13.887  1.00  9.23     0.005 C 
HETATM   45  C46 RAP A 108      11.065  14.753  14.911  1.00 15.99     0.008 C 
HETATM   46  C47 RAP A 108       8.253  13.861  10.567  1.00 14.60     0.029 C 
HETATM   47  C48 RAP A 108       6.823  14.476  14.668  1.00  9.37     0.013 C 
ENDROOT
BRANCH  41  48
HETATM   48  C35 RAP A 108       4.383  16.985   9.381  1.00  9.58     0.028 C 
HETATM   49  C49 RAP A 108       3.162  16.346   8.785  1.00  8.29     0.003 C 
BRANCH  48  50
HETATM   50  C36 RAP A 108       5.642  16.513   8.655  1.00 10.31     0.003 C 
BRANCH  50  51
HETATM   51  C37 RAP A 108       6.322  17.507   7.711  1.00 22.90     0.003 C 
HETATM   52  C38 RAP A 108       7.839  17.286   7.719  1.00 14.17     0.032 C 
HETATM   53  C39 RAP A 108       8.598  18.321   6.886  1.00 34.20     0.142 C 
HETATM   54  C40 RAP A 108       8.005  18.381   5.436  1.00 38.24     0.138 C 
HETATM   55  C41 RAP A 108       6.475  18.567   5.412  1.00 16.32     0.032 C 
HETATM   56  C42 RAP A 108       5.786  17.523   6.280  1.00 14.05     0.003 C 
BRANCH  53  57
HETATM   57  O12 RAP A 108       9.937  17.900   6.851  1.00 30.82    -0.352 OA
HETATM   58  C52 RAP A 108      10.200  16.617   7.304  1.00 28.14     0.174 C 
ENDBRANCH  53  57
BRANCH  54  59
HETATM   59  O13 RAP A 108       8.617  19.455   4.725  1.00 28.84    -0.382 OA
HETATM   60  HO3 RAP A 108       7.938  20.062   4.405  1.00 13.32     0.210 HD
ENDBRANCH  54  59
ENDBRANCH  50  51
ENDBRANCH  48  50
ENDBRANCH  41  48
BRANCH  35  61
HETATM   61  O10 RAP A 108       9.854  17.091  11.768  1.00 12.16    -0.378 OA
HETATM   62  HO1 RAP A 108      10.773  17.331  11.956  1.00 13.32     0.211 HD
ENDBRANCH  35  61
BRANCH  16  63
HETATM   63  O6  RAP A 108      -1.709  13.137  11.062  1.00 14.16    -0.358 OA
HETATM   64  HO6 RAP A 108      -1.485  12.395  11.631  1.00 13.32     0.213 HD
ENDBRANCH  16  63
BRANCH  34  65
HETATM   65  O9  RAP A 108      12.029  15.791  10.242  1.00 23.09    -0.344 OA
HETATM   66  C51 RAP A 108      12.779  14.953   9.434  1.00 19.04     0.175 C 
ENDBRANCH  34  65
BRANCH  23  67
HETATM   67  O7  RAP A 108       2.244   9.968  12.664  1.00 20.17    -0.350 OA
HETATM   68  C50 RAP A 108       2.727   8.690  12.397  1.00 28.36     0.175 C 
ENDBRANCH  23  67
TORSDOF 9
ENDMDL
MODEL 5
REMARK VINA RESULT:    -5.953      2.526      7.382
REMARK INTER + INTRA:         -10.891
REMARK INTER:                  -8.642
REMARK INTRA:                  -2.249
REMARK UNBOUND:                -2.328
REMARK  9 active torsions:
REMARK  status: ('A' for Active; 'I' for Inactive)
REMARK    1  A    between atoms: O6_12  and  C10_19 
REMARK    2  A    between atoms: O7_14  and  C16_29 
REMARK    3  A    between atoms: O9_18  and  C27_40 
REMARK    4  A    between atoms: O10_20  and  C28_41 
REMARK    5  A    between atoms: O12_24  and  C39_52 
REMARK    6  A    between atoms: O13_26  and  C40_53 
REMARK    7  A    between atoms: C34_47  and  C35_48 
REMARK    8  A    between atoms: C35_48  and  C36_49 
REMARK    9  A    between atoms: C36_49  and  C37_50 
ROOT
HETATM    1  C1  RAP A 108       8.989   3.629  -7.890  1.00  5.98     0.292 C 
HETATM    2  O1  RAP A 108       7.905   2.891  -7.342  1.00  9.08    -0.302 OA
HETATM    3  C2  RAP A 108      10.444   3.308  -7.550  1.00  6.42     0.171 C 
HETATM    4  O2  RAP A 108       8.730   4.571  -8.636  1.00 14.08    -0.262 OA
HETATM    5  C3  RAP A 108      11.318   3.336  -8.795  1.00  5.50     0.033 C 
HETATM    6  O3  RAP A 108      10.976   3.050  -4.937  1.00 10.38    -0.264 OA
HETATM    7  C4  RAP A 108      11.141   2.121  -9.694  1.00  4.49     0.004 C 
HETATM    8  O4  RAP A 108      12.249   0.311  -4.786  1.00 10.60    -0.281 OA
HETATM    9  C5  RAP A 108      11.382   0.876  -8.858  1.00  4.19     0.024 C 
HETATM   10  O5  RAP A 108       9.257  -0.634  -5.186  1.00 10.76    -0.332 OA
HETATM   11  C6  RAP A 108      10.440   0.823  -7.695  1.00  3.25     0.105 C 
HETATM   12  N7  RAP A 108      10.669   2.025  -6.876  1.00  8.46    -0.307 N 
HETATM   13  C8  RAP A 108      10.888   1.980  -5.553  1.00 10.06     0.297 C 
HETATM   14  O8  RAP A 108       0.530   2.623 -13.372  1.00 18.31    -0.293 OA
HETATM   15  C9  RAP A 108      11.103   0.774  -4.850  1.00 11.13     0.279 C 
HETATM   16  C10 RAP A 108       9.961   0.013  -4.152  1.00 16.59     0.246 C 
HETATM   17  C11 RAP A 108       8.968   0.958  -3.359  1.00 10.40     0.059 C 
HETATM   18  O11 RAP A 108       7.320   1.390  -9.831  1.00  9.49    -0.296 OA
HETATM   19  C12 RAP A 108       7.684   0.202  -2.947  1.00 12.17     0.008 C 
HETATM   20  C13 RAP A 108       7.101  -0.544  -4.139  1.00 12.80     0.030 C 
HETATM   21  C14 RAP A 108       8.128  -1.378  -4.897  1.00 10.37     0.121 C 
HETATM   22  C15 RAP A 108       7.566  -1.775  -6.251  1.00  5.94     0.064 C 
HETATM   23  C16 RAP A 108       6.433  -2.793  -6.250  1.00  9.79     0.136 C 
HETATM   24  C17 RAP A 108       5.941  -3.073  -7.654  1.00 15.52    -0.017 C 
HETATM   25  C18 RAP A 108       4.711  -2.698  -7.979  1.00 14.38    -0.006 C 
HETATM   26  C19 RAP A 108       4.104  -2.874  -9.306  1.00  9.73    -0.001 C 
HETATM   27  C20 RAP A 108       2.844  -2.504  -9.493  1.00 10.26    -0.000 C 
HETATM   28  C21 RAP A 108       2.219  -2.565 -10.827  1.00 11.40    -0.005 C 
HETATM   29  C22 RAP A 108       1.045  -2.015 -11.070  1.00 17.77    -0.026 C 
HETATM   30  C23 RAP A 108       0.405  -1.950 -12.440  1.00 15.64     0.022 C 
HETATM   31  C24 RAP A 108       0.126  -0.484 -12.721  1.00 14.68     0.012 C 
HETATM   32  C25 RAP A 108       1.285   0.485 -12.573  1.00 11.87     0.061 C 
HETATM   33  C26 RAP A 108       0.780   1.911 -12.402  1.00 11.65     0.180 C 
HETATM   34  C27 RAP A 108       0.614   2.413 -10.972  1.00  8.13     0.203 C 
HETATM   35  C28 RAP A 108       1.937   2.957 -10.344  1.00 10.80     0.163 C 
HETATM   36  C29 RAP A 108       2.857   1.853  -9.789  1.00  9.60    -0.019 C 
HETATM   37  C30 RAP A 108       4.022   1.528 -10.350  1.00  8.55    -0.025 C 
HETATM   38  C31 RAP A 108       5.069   0.496  -9.908  1.00  8.43     0.079 C 
HETATM   39  C32 RAP A 108       6.246   1.211  -9.247  1.00 10.69     0.157 C 
HETATM   40  C33 RAP A 108       5.992   1.740  -7.839  1.00  6.51     0.095 C 
HETATM   41  C34 RAP A 108       6.570   3.124  -7.631  1.00  9.62     0.132 C 
HETATM   42  C43 RAP A 108       9.588   1.694  -2.134  1.00 11.25     0.005 C 
HETATM   43  C44 RAP A 108       6.931  -3.808  -8.575  1.00 14.40     0.029 C 
HETATM   44  C45 RAP A 108      -0.882  -2.761 -12.481  1.00  9.23     0.005 C 
HETATM   45  C46 RAP A 108       2.257   0.387 -13.751  1.00 15.99     0.008 C 
HETATM   46  C47 RAP A 108       2.318   1.153  -8.557  1.00 14.60     0.029 C 
HETATM   47  C48 RAP A 108       5.558  -0.275 -11.145  1.00  9.37     0.013 C 
ENDROOT
BRANCH  41  48
HETATM   48  C35 RAP A 108       6.031   3.978  -6.466  1.00  9.58     0.028 C 
HETATM   49  C49 RAP A 108       5.934   3.199  -5.186  1.00  8.29     0.003 C 
BRANCH  48  50
HETATM   50  C36 RAP A 108       4.689   4.626  -6.801  1.00 10.31     0.003 C 
BRANCH  50  51
HETATM   51  C37 RAP A 108       4.708   5.838  -7.736  1.00 22.90     0.003 C 
HETATM   52  C38 RAP A 108       5.835   6.795  -7.332  1.00 14.17     0.032 C 
HETATM   53  C39 RAP A 108       5.842   8.088  -8.150  1.00 34.20     0.142 C 
HETATM   54  C40 RAP A 108       5.855   7.753  -9.682  1.00 38.24     0.138 C 
HETATM   55  C41 RAP A 108       4.749   6.763 -10.097  1.00 16.32     0.032 C 
HETATM   56  C42 RAP A 108       4.783   5.514  -9.227  1.00 14.05     0.003 C 
BRANCH  53  57
HETATM   57  O12 RAP A 108       7.009   8.782  -7.790  1.00 30.82    -0.352 OA
HETATM   58  C52 RAP A 108       8.205   8.090  -7.898  1.00 28.14     0.174 C 
ENDBRANCH  53  57
BRANCH  54  59
HETATM   59  O13 RAP A 108       5.704   8.961 -10.425  1.00 28.84    -0.382 OA
HETATM   60  HO3 RAP A 108       5.051   9.528  -9.995  1.00 13.32     0.210 HD
ENDBRANCH  54  59
ENDBRANCH  50  51
ENDBRANCH  48  50
ENDBRANCH  41  48
BRANCH  35  61
HETATM   61  O10 RAP A 108       2.625   3.698 -11.361  1.00 12.16    -0.378 OA
HETATM   62  HO1 RAP A 108       2.116   3.728 -12.184  1.00 13.32     0.211 HD
ENDBRANCH  35  61
BRANCH  16  63
HETATM   63  O6  RAP A 108      10.528  -0.933  -3.241  1.00 14.16    -0.358 OA
HETATM   64  HO6 RAP A 108       9.940  -1.008  -2.485  1.00 13.32     0.213 HD
ENDBRANCH  16  63
BRANCH  34  65
HETATM   65  O9  RAP A 108      -0.300   3.477 -10.972  1.00 23.09    -0.344 OA
HETATM   66  C51 RAP A 108      -0.559   4.044  -9.736  1.00 19.04     0.175 C 
ENDBRANCH  34  65
BRANCH  23  67
HETATM   67  O7  RAP A 108       6.919  -3.971  -5.686  1.00 20.17    -0.350 OA
HETATM   68  C50 RAP A 108       6.115  -4.569  -4.719  1.00 28.36     0.175 C 
ENDBRANCH  23  67
TORSDOF 9
ENDMDL
MODEL 6
REMARK VINA RESULT:    -5.868     12.220     16.142
REMARK INTER + INTRA:         -10.768
REMARK INTER:                  -8.677
REMARK INTRA:                  -2.090
REMARK UNBOUND:                -2.328
REMARK  9 active torsions:
REMARK  status: ('A' for Active; 'I' for Inactive)
REMARK    1  A    between atoms: O6_12  and  C10_19 
REMARK    2  A    between atoms: O7_14  and  C16_29 
REMARK    3  A    between atoms: O9_18  and  C27_40 
REMARK    4  A    between atoms: O10_20  and  C28_41 
REMARK    5  A    between atoms: O12_24  and  C39_52 
REMARK    6  A    between atoms: O13_26  and  C40_53 
REMARK    7  A    between atoms: C34_47  and  C35_48 
REMARK    8  A    between atoms: C35_48  and  C36_49 
REMARK    9  A    between atoms: C36_49  and  C37_50 
ROOT
HETATM    1  C1  RAP A 108      11.887   8.452   0.975  1.00  5.98     0.292 C 
HETATM    2  O1  RAP A 108      12.528   9.355   0.084  1.00  9.08    -0.302 OA
HETATM    3  C2  RAP A 108      12.642   7.752   2.104  1.00  6.42     0.171 C 
HETATM    4  O2  RAP A 108      10.694   8.214   0.798  1.00 14.08    -0.262 OA
HETATM    5  C3  RAP A 108      11.837   7.768   3.395  1.00  5.50     0.033 C 
HETATM    6  O3  RAP A 108      14.936   6.571   1.384  1.00 10.38    -0.264 OA
HETATM    7  C4  RAP A 108      11.824   9.122   4.089  1.00  4.49     0.004 C 
HETATM    8  O4  RAP A 108      16.944   7.812   3.275  1.00 10.60    -0.281 OA
HETATM    9  C5  RAP A 108      13.263   9.554   4.311  1.00  4.19     0.024 C 
HETATM   10  O5  RAP A 108      16.577  10.298   1.355  1.00 10.76    -0.332 OA
HETATM   11  C6  RAP A 108      14.004   9.626   3.012  1.00  3.25     0.105 C 
HETATM   12  N7  RAP A 108      13.975   8.287   2.403  1.00  8.46    -0.307 N 
HETATM   13  C8  RAP A 108      15.075   7.653   1.968  1.00 10.06     0.297 C 
HETATM   14  O8  RAP A 108       6.479  16.063  -2.956  1.00 18.31    -0.293 OA
HETATM   15  C9  RAP A 108      16.382   8.125   2.218  1.00 11.13     0.279 C 
HETATM   16  C10 RAP A 108      17.142   9.016   1.217  1.00 16.59     0.246 C 
HETATM   17  C11 RAP A 108      16.993   8.541  -0.286  1.00 10.40     0.059 C 
HETATM   18  O11 RAP A 108      11.364  11.797   1.298  1.00  9.49    -0.296 OA
HETATM   19  C12 RAP A 108      17.498   9.623  -1.268  1.00 12.17     0.008 C 
HETATM   20  C13 RAP A 108      16.894  10.978  -0.924  1.00 12.80     0.030 C 
HETATM   21  C14 RAP A 108      17.011  11.338   0.554  1.00 10.37     0.121 C 
HETATM   22  C15 RAP A 108      16.079  12.493   0.874  1.00  5.94     0.064 C 
HETATM   23  C16 RAP A 108      16.451  13.854   0.297  1.00  9.79     0.136 C 
HETATM   24  C17 RAP A 108      15.424  14.905   0.659  1.00 15.52    -0.017 C 
HETATM   25  C18 RAP A 108      14.695  15.437  -0.313  1.00 14.38    -0.006 C 
HETATM   26  C19 RAP A 108      13.643  16.444  -0.117  1.00  9.73    -0.001 C 
HETATM   27  C20 RAP A 108      13.018  16.939  -1.177  1.00 10.26    -0.000 C 
HETATM   28  C21 RAP A 108      11.888  17.875  -1.031  1.00 11.40    -0.005 C 
HETATM   29  C22 RAP A 108      11.130  18.215  -2.057  1.00 17.77    -0.026 C 
HETATM   30  C23 RAP A 108       9.895  19.082  -1.949  1.00 15.64     0.022 C 
HETATM   31  C24 RAP A 108       8.748  18.280  -2.539  1.00 14.68     0.012 C 
HETATM   32  C25 RAP A 108       8.527  16.880  -1.996  1.00 11.87     0.061 C 
HETATM   33  C26 RAP A 108       7.707  16.045  -2.971  1.00 11.65     0.180 C 
HETATM   34  C27 RAP A 108       8.488  15.179  -3.955  1.00  8.13     0.203 C 
HETATM   35  C28 RAP A 108       8.925  13.801  -3.362  1.00 10.80     0.163 C 
HETATM   36  C29 RAP A 108      10.202  13.876  -2.503  1.00  9.60    -0.019 C 
HETATM   37  C30 RAP A 108      10.198  13.709  -1.181  1.00  8.55    -0.025 C 
HETATM   38  C31 RAP A 108      11.371  13.709  -0.190  1.00  8.43     0.079 C 
HETATM   39  C32 RAP A 108      11.703  12.271   0.210  1.00 10.69     0.157 C 
HETATM   40  C33 RAP A 108      12.431  11.444  -0.844  1.00  6.51     0.095 C 
HETATM   41  C34 RAP A 108      11.890  10.032  -0.942  1.00  9.62     0.132 C 
HETATM   42  C43 RAP A 108      17.636   7.160  -0.613  1.00 11.25     0.005 C 
HETATM   43  C44 RAP A 108      15.348  15.282   2.150  1.00 14.40     0.029 C 
HETATM   44  C45 RAP A 108      10.079  20.392  -2.700  1.00  9.23     0.005 C 
HETATM   45  C46 RAP A 108       7.869  16.908  -0.614  1.00 15.99     0.008 C 
HETATM   46  C47 RAP A 108      11.465  14.172  -3.289  1.00 14.60     0.029 C 
HETATM   47  C48 RAP A 108      10.968  14.514   1.055  1.00  9.37     0.013 C 
ENDROOT
BRANCH  41  48
HETATM   48  C35 RAP A 108      12.177   9.222  -2.223  1.00  9.58     0.028 C 
HETATM   49  C49 RAP A 108      12.441  10.106  -3.407  1.00  8.29     0.003 C 
BRANCH  48  50
HETATM   50  C36 RAP A 108      11.061   8.227  -2.536  1.00 10.31     0.003 C 
BRANCH  50  51
HETATM   51  C37 RAP A 108      11.390   6.739  -2.402  1.00 22.90     0.003 C 
HETATM   52  C38 RAP A 108      12.874   6.557  -2.061  1.00 14.17     0.032 C 
HETATM   53  C39 RAP A 108      13.303   5.089  -2.026  1.00 34.20     0.142 C 
HETATM   54  C40 RAP A 108      12.362   4.278  -1.071  1.00 38.24     0.138 C 
HETATM   55  C41 RAP A 108      10.865   4.478  -1.379  1.00 16.32     0.032 C 
HETATM   56  C42 RAP A 108      10.512   5.958  -1.424  1.00 14.05     0.003 C 
BRANCH  53  57
HETATM   57  O12 RAP A 108      14.623   5.071  -1.546  1.00 30.82    -0.352 OA
HETATM   58  C52 RAP A 108      15.584   4.525  -2.382  1.00 28.14     0.174 C 
ENDBRANCH  53  57
BRANCH  54  59
HETATM   59  O13 RAP A 108      12.677   2.890  -1.172  1.00 28.84    -0.382 OA
HETATM   60  HO3 RAP A 108      12.830   2.526  -0.291  1.00 13.32     0.210 HD
ENDBRANCH  54  59
ENDBRANCH  50  51
ENDBRANCH  48  50
ENDBRANCH  41  48
BRANCH  35  61
HETATM   61  O10 RAP A 108       7.836  13.306  -2.572  1.00 12.16    -0.378 OA
HETATM   62  HO1 RAP A 108       8.031  13.358  -1.625  1.00 13.32     0.211 HD
ENDBRANCH  35  61
BRANCH  16  63
HETATM   63  O6  RAP A 108      18.529   9.021   1.567  1.00 14.16    -0.358 OA
HETATM   64  HO6 RAP A 108      18.620   9.455   2.420  1.00 13.32     0.213 HD
ENDBRANCH  16  63
BRANCH  34  65
HETATM   65  O9  RAP A 108       7.667  14.902  -5.058  1.00 23.09    -0.344 OA
HETATM   66  C51 RAP A 108       8.197  14.030  -5.994  1.00 19.04     0.175 C 
ENDBRANCH  34  65
BRANCH  23  67
HETATM   67  O7  RAP A 108      17.689  14.214   0.825  1.00 20.17    -0.350 OA
HETATM   68  C50 RAP A 108      18.610  14.745  -0.074  1.00 28.36     0.175 C 
ENDBRANCH  23  67
TORSDOF 9
ENDMDL
MODEL 7
REMARK VINA RESULT:    -5.810      6.673     11.660
REMARK INTER + INTRA:         -10.684
REMARK INTER:                  -8.192
REMARK INTRA:                  -2.493
REMARK UNBOUND:                -2.328
REMARK  9 active torsions:
REMARK  status: ('A' for Active; 'I' for Inactive)
REMARK    1  A    between atoms: O6_12  and  C10_19 
REMARK    2  A    between atoms: O7_14  and  C16_29 
REMARK    3  A    between atoms: O9_18  and  C27_40 
REMARK    4  A    between atoms: O10_20  and  C28_41 
REMARK    5  A    between atoms: O12_24  and  C39_52 
REMARK    6  A    between atoms: O13_26  and  C40_53 
REMARK    7  A    between atoms: C34_47  and  C35_48 
REMARK    8  A    between atoms: C35_48  and  C36_49 
REMARK    9  A    between atoms: C36_49  and  C37_50 
ROOT
HETATM    1  C1  RAP A 108      12.769  -0.797   0.044  1.00  5.98     0.292 C 
HETATM    2  O1  RAP A 108      12.319   0.032  -1.020  1.00  9.08    -0.302 OA
HETATM    3  C2  RAP A 108      13.674  -2.005  -0.195  1.00  6.42     0.171 C 
HETATM    4  O2  RAP A 108      12.385  -0.536   1.182  1.00 14.08    -0.262 OA
HETATM    5  C3  RAP A 108      14.791  -2.066   0.836  1.00  5.50     0.033 C 
HETATM    6  O3  RAP A 108      12.868  -3.670  -2.132  1.00 10.38    -0.264 OA
HETATM    7  C4  RAP A 108      15.897  -1.048   0.600  1.00  4.49     0.004 C 
HETATM    8  O4  RAP A 108      15.288  -3.804  -3.942  1.00 10.60    -0.281 OA
HETATM    9  C5  RAP A 108      16.418  -1.235  -0.814  1.00  4.19     0.024 C 
HETATM   10  O5  RAP A 108      14.297  -0.919  -4.774  1.00 10.76    -0.332 OA
HETATM   11  C6  RAP A 108      15.316  -1.070  -1.815  1.00  3.25     0.105 C 
HETATM   12  N7  RAP A 108      14.289  -2.084  -1.524  1.00  8.46    -0.307 N 
HETATM   13  C8  RAP A 108      13.797  -2.917  -2.453  1.00 10.06     0.297 C 
HETATM   14  O8  RAP A 108      11.053   9.011   1.908  1.00 18.31    -0.293 OA
HETATM   15  C9  RAP A 108      14.342  -3.030  -3.751  1.00 11.13     0.279 C 
HETATM   16  C10 RAP A 108      13.798  -2.225  -4.946  1.00 16.59     0.246 C 
HETATM   17  C11 RAP A 108      12.217  -2.175  -5.003  1.00 10.40     0.059 C 
HETATM   18  O11 RAP A 108      14.145   2.282  -0.398  1.00  9.49    -0.296 OA
HETATM   19  C12 RAP A 108      11.726  -1.113  -6.014  1.00 12.17     0.008 C 
HETATM   20  C13 RAP A 108      12.436   0.213  -5.781  1.00 12.80     0.030 C 
HETATM   21  C14 RAP A 108      13.951   0.079  -5.666  1.00 10.37     0.121 C 
HETATM   22  C15 RAP A 108      14.534   1.350  -5.074  1.00  5.94     0.064 C 
HETATM   23  C16 RAP A 108      14.500   2.594  -5.955  1.00  9.79     0.136 C 
HETATM   24  C17 RAP A 108      15.075   3.795  -5.235  1.00 15.52    -0.017 C 
HETATM   25  C18 RAP A 108      14.263   4.800  -4.936  1.00 14.38    -0.006 C 
HETATM   26  C19 RAP A 108      14.665   6.017  -4.216  1.00  9.73    -0.001 C 
HETATM   27  C20 RAP A 108      13.771   6.976  -4.021  1.00 10.26    -0.000 C 
HETATM   28  C21 RAP A 108      14.093   8.171  -3.220  1.00 11.40    -0.005 C 
HETATM   29  C22 RAP A 108      13.163   9.030  -2.848  1.00 17.77    -0.026 C 
HETATM   30  C23 RAP A 108      13.414  10.211  -1.937  1.00 15.64     0.022 C 
HETATM   31  C24 RAP A 108      12.458  10.068  -0.765  1.00 14.68     0.012 C 
HETATM   32  C25 RAP A 108      12.464   8.746  -0.021  1.00 11.87     0.061 C 
HETATM   33  C26 RAP A 108      11.176   8.564   0.770  1.00 11.65     0.180 C 
HETATM   34  C27 RAP A 108      10.054   7.791   0.085  1.00  8.13     0.203 C 
HETATM   35  C28 RAP A 108      10.191   6.240   0.223  1.00 10.80     0.163 C 
HETATM   36  C29 RAP A 108      11.166   5.614  -0.792  1.00  9.60    -0.019 C 
HETATM   37  C30 RAP A 108      12.344   5.096  -0.442  1.00  8.55    -0.025 C 
HETATM   38  C31 RAP A 108      13.405   4.402  -1.308  1.00  8.43     0.079 C 
HETATM   39  C32 RAP A 108      13.329   2.890  -1.098  1.00 10.69     0.157 C 
HETATM   40  C33 RAP A 108      12.150   2.189  -1.762  1.00  6.51     0.095 C 
HETATM   41  C34 RAP A 108      11.516   1.149  -0.861  1.00  9.62     0.132 C 
HETATM   42  C43 RAP A 108      11.518  -3.543  -5.260  1.00 11.25     0.005 C 
HETATM   43  C44 RAP A 108      16.585   3.740  -4.943  1.00 14.40     0.029 C 
HETATM   44  C45 RAP A 108      13.179  11.526  -2.667  1.00  9.23     0.005 C 
HETATM   45  C46 RAP A 108      13.687   8.617   0.891  1.00 15.99     0.008 C 
HETATM   46  C47 RAP A 108      10.681   5.650  -2.228  1.00 14.60     0.029 C 
HETATM   47  C48 RAP A 108      14.794   4.915  -0.896  1.00  9.37     0.013 C 
ENDROOT
BRANCH  41  48
HETATM   48  C35 RAP A 108      10.080   0.683  -1.172  1.00  9.58     0.028 C 
HETATM   49  C49 RAP A 108      10.054  -0.616  -1.925  1.00  8.29     0.003 C 
BRANCH  48  50
HETATM   50  C36 RAP A 108       9.278   1.749  -1.917  1.00 10.31     0.003 C 
BRANCH  50  51
HETATM   51  C37 RAP A 108       9.110   1.573  -3.428  1.00 22.90     0.003 C 
HETATM   52  C38 RAP A 108       7.625   1.422  -3.778  1.00 14.17     0.032 C 
HETATM   53  C39 RAP A 108       7.388   1.125  -5.259  1.00 34.20     0.142 C 
HETATM   54  C40 RAP A 108       8.109   2.200  -6.144  1.00 38.24     0.138 C 
HETATM   55  C41 RAP A 108       9.595   2.388  -5.780  1.00 16.32     0.032 C 
HETATM   56  C42 RAP A 108       9.761   2.654  -4.290  1.00 14.05     0.003 C 
BRANCH  53  57
HETATM   57  O12 RAP A 108       5.998   1.178  -5.459  1.00 30.82    -0.352 OA
HETATM   58  C52 RAP A 108       5.382   2.399  -5.237  1.00 28.14     0.174 C 
ENDBRANCH  53  57
BRANCH  54  59
HETATM   59  O13 RAP A 108       8.009   1.820  -7.515  1.00 28.84    -0.382 OA
HETATM   60  HO3 RAP A 108       7.686   2.566  -8.036  1.00 13.32     0.210 HD
ENDBRANCH  54  59
ENDBRANCH  50  51
ENDBRANCH  48  50
ENDBRANCH  41  48
BRANCH  35  61
HETATM   61  O10 RAP A 108      10.633   5.963   1.558  1.00 12.16    -0.378 OA
HETATM   62  HO1 RAP A 108      10.006   6.295   2.217  1.00 13.32     0.211 HD
ENDBRANCH  35  61
BRANCH  16  63
HETATM   63  O6  RAP A 108      14.288  -2.810  -6.156  1.00 14.16    -0.358 OA
HETATM   64  HO6 RAP A 108      13.812  -3.633  -6.303  1.00 13.32     0.213 HD
ENDBRANCH  16  63
BRANCH  34  65
HETATM   65  O9  RAP A 108       8.835   8.143   0.682  1.00 23.09    -0.344 OA
HETATM   66  C51 RAP A 108       7.742   7.382   0.304  1.00 19.04     0.175 C 
ENDBRANCH  34  65
BRANCH  23  67
HETATM   67  O7  RAP A 108      15.259   2.329  -7.093  1.00 20.17    -0.350 OA
HETATM   68  C50 RAP A 108      14.844   2.951  -8.268  1.00 28.36     0.175 C 
ENDBRANCH  23  67
TORSDOF 9
ENDMDL
MODEL 8
REMARK VINA RESULT:    -5.676      1.676      2.137
REMARK INTER + INTRA:         -10.492
REMARK INTER:                  -8.137
REMARK INTRA:                  -2.356
REMARK UNBOUND:                -2.328
REMARK  9 active torsions:
REMARK  status: ('A' for Active; 'I' for Inactive)
REMARK    1  A    between atoms: O6_12  and  C10_19 
REMARK    2  A    between atoms: O7_14  and  C16_29 
REMARK    3  A    between atoms: O9_18  and  C27_40 
REMARK    4  A    between atoms: O10_20  and  C28_41 
REMARK    5  A    between atoms: O12_24  and  C39_52 
REMARK    6  A    between atoms: O13_26  and  C40_53 
REMARK    7  A    between atoms: C34_47  and  C35_48 
REMARK    8  A    between atoms: C35_48  and  C36_49 
REMARK    9  A    between atoms: C36_49  and  C37_50 
ROOT
HETATM    1  C1  RAP A 108       5.788  -2.590  -7.801  1.00  5.98     0.292 C 
HETATM    2  O1  RAP A 108       5.853  -1.558  -8.776  1.00  9.08    -0.302 OA
HETATM    3  C2  RAP A 108       6.850  -2.749  -6.714  1.00  6.42     0.171 C 
HETATM    4  O2  RAP A 108       4.857  -3.390  -7.868  1.00 14.08    -0.262 OA
HETATM    5  C3  RAP A 108       6.212  -3.031  -5.361  1.00  5.50     0.033 C 
HETATM    6  O3  RAP A 108       9.385  -2.714  -7.579  1.00 10.38    -0.264 OA
HETATM    7  C4  RAP A 108       5.575  -1.807  -4.719  1.00  4.49     0.004 C 
HETATM    8  O4  RAP A 108      10.626  -0.518  -5.910  1.00 10.60    -0.281 OA
HETATM    9  C5  RAP A 108       6.627  -0.715  -4.635  1.00  4.19     0.024 C 
HETATM   10  O5  RAP A 108       8.982   1.327  -7.885  1.00 10.76    -0.332 OA
HETATM   11  C6  RAP A 108       7.165  -0.387  -5.994  1.00  3.25     0.105 C 
HETATM   12  N7  RAP A 108       7.763  -1.613  -6.548  1.00  8.46    -0.307 N 
HETATM   13  C8  RAP A 108       9.007  -1.661  -7.049  1.00 10.06     0.297 C 
HETATM   14  O8  RAP A 108      -2.863   1.117 -11.547  1.00 18.31    -0.293 OA
HETATM   15  C9  RAP A 108       9.926  -0.596  -6.928  1.00 11.13     0.279 C 
HETATM   16  C10 RAP A 108      10.095   0.475  -8.021  1.00 16.59     0.246 C 
HETATM   17  C11 RAP A 108      10.116  -0.122  -9.488  1.00 10.40     0.059 C 
HETATM   18  O11 RAP A 108       3.711   0.092  -7.561  1.00  9.49    -0.296 OA
HETATM   19  C12 RAP A 108       9.971   0.993 -10.549  1.00 12.17     0.008 C 
HETATM   20  C13 RAP A 108       8.800   1.904 -10.206  1.00 12.80     0.030 C 
HETATM   21  C14 RAP A 108       8.806   2.384  -8.759  1.00 10.37     0.121 C 
HETATM   22  C15 RAP A 108       7.446   2.960  -8.405  1.00  5.94     0.064 C 
HETATM   23  C16 RAP A 108       7.071   4.283  -9.061  1.00  9.79     0.136 C 
HETATM   24  C17 RAP A 108       5.682   4.726  -8.654  1.00 15.52    -0.017 C 
HETATM   25  C18 RAP A 108       4.734   4.763  -9.582  1.00 14.38    -0.006 C 
HETATM   26  C19 RAP A 108       3.335   5.142  -9.336  1.00  9.73    -0.001 C 
HETATM   27  C20 RAP A 108       2.492   5.191 -10.357  1.00 10.26    -0.000 C 
HETATM   28  C21 RAP A 108       1.058   5.467 -10.153  1.00 11.40    -0.005 C 
HETATM   29  C22 RAP A 108       0.176   5.319 -11.123  1.00 17.77    -0.026 C 
HETATM   30  C23 RAP A 108      -1.318   5.481 -10.945  1.00 15.64     0.022 C 
HETATM   31  C24 RAP A 108      -1.955   4.181 -11.406  1.00 14.68     0.012 C 
HETATM   32  C25 RAP A 108      -1.431   2.895 -10.795  1.00 11.87     0.061 C 
HETATM   33  C26 RAP A 108      -1.787   1.697 -11.665  1.00 11.65     0.180 C 
HETATM   34  C27 RAP A 108      -0.738   1.250 -12.678  1.00  8.13     0.203 C 
HETATM   35  C28 RAP A 108       0.351   0.307 -12.072  1.00 10.80     0.163 C 
HETATM   36  C29 RAP A 108       1.472   1.057 -11.327  1.00  9.60    -0.019 C 
HETATM   37  C30 RAP A 108       1.623   1.007 -10.004  1.00  8.55    -0.025 C 
HETATM   38  C31 RAP A 108       2.697   1.650  -9.115  1.00  8.43     0.079 C 
HETATM   39  C32 RAP A 108       3.713   0.590  -8.691  1.00 10.69     0.157 C 
HETATM   40  C33 RAP A 108       4.695   0.145  -9.770  1.00  6.51     0.095 C 
HETATM   41  C34 RAP A 108       4.911  -1.354  -9.770  1.00  9.62     0.132 C 
HETATM   42  C43 RAP A 108      11.335  -1.036  -9.816  1.00 11.25     0.005 C 
HETATM   43  C44 RAP A 108       5.513   5.127  -7.178  1.00 14.40     0.029 C 
HETATM   44  C45 RAP A 108      -1.841   6.656 -11.757  1.00  9.23     0.005 C 
HETATM   45  C46 RAP A 108      -1.941   2.701  -9.364  1.00 15.99     0.008 C 
HETATM   46  C47 RAP A 108       2.382   1.871 -12.226  1.00 14.60     0.029 C 
HETATM   47  C48 RAP A 108       2.021   2.247  -7.872  1.00  9.37     0.013 C 
ENDROOT
BRANCH  41  48
HETATM   48  C35 RAP A 108       5.487  -2.014 -11.038  1.00  9.58     0.028 C 
HETATM   49  C49 RAP A 108       5.629  -1.040 -12.172  1.00  8.29     0.003 C 
BRANCH  48  50
HETATM   50  C36 RAP A 108       4.672  -3.229 -11.476  1.00 10.31     0.003 C 
BRANCH  50  51
HETATM   51  C37 RAP A 108       3.147  -3.104 -11.431  1.00 22.90     0.003 C 
HETATM   52  C38 RAP A 108       2.547  -3.504 -12.784  1.00 14.17     0.032 C 
HETATM   53  C39 RAP A 108       1.034  -3.293 -12.852  1.00 34.20     0.142 C 
HETATM   54  C40 RAP A 108       0.337  -4.015 -11.647  1.00 38.24     0.138 C 
HETATM   55  C41 RAP A 108       0.953  -3.650 -10.282  1.00 16.32     0.032 C 
HETATM   56  C42 RAP A 108       2.461  -3.858 -10.292  1.00 14.05     0.003 C 
BRANCH  53  57
HETATM   57  O12 RAP A 108       0.607  -3.849 -14.069  1.00 30.82    -0.352 OA
HETATM   58  C52 RAP A 108      -0.014  -2.991 -14.963  1.00 28.14     0.174 C 
ENDBRANCH  53  57
BRANCH  54  59
HETATM   59  O13 RAP A 108      -1.049  -3.678 -11.639  1.00 28.84    -0.382 OA
HETATM   60  HO3 RAP A 108      -1.150  -2.718 -11.615  1.00 13.32     0.210 HD
ENDBRANCH  54  59
ENDBRANCH  50  51
ENDBRANCH  48  50
ENDBRANCH  41  48
BRANCH  35  61
HETATM   61  O10 RAP A 108      -0.310  -0.596 -11.176  1.00 12.16    -0.378 OA
HETATM   62  HO1 RAP A 108      -0.191  -0.330 -10.252  1.00 13.32     0.211 HD
ENDBRANCH  35  61
BRANCH  16  63
HETATM   63  O6  RAP A 108      11.318   1.179  -7.790  1.00 14.16    -0.358 OA
HETATM   64  HO6 RAP A 108      11.117   2.118  -7.740  1.00 13.32     0.213 HD
ENDBRANCH  16  63
BRANCH  34  65
HETATM   65  O9  RAP A 108      -1.376   0.528 -13.696  1.00 23.09    -0.344 OA
HETATM   66  C51 RAP A 108      -0.817   0.651 -14.957  1.00 19.04     0.175 C 
ENDBRANCH  34  65
BRANCH  23  67
HETATM   67  O7  RAP A 108       8.000   5.238  -8.654  1.00 20.17    -0.350 OA
HETATM   68  C50 RAP A 108       8.223   6.295  -9.532  1.00 28.36     0.175 C 
ENDBRANCH  23  67
TORSDOF 9
ENDMDL
MODEL 9
REMARK VINA RESULT:    -5.650      3.556     10.935
REMARK INTER + INTRA:         -10.454
REMARK INTER:                  -7.692
REMARK INTRA:                  -2.762
REMARK UNBOUND:                -2.328
REMARK  9 active torsions:
REMARK  status: ('A' for Active; 'I' for Inactive)
REMARK    1  A    between atoms: O6_12  and  C10_19 
REMARK    2  A    between atoms: O7_14  and  C16_29 
REMARK    3  A    between atoms: O9_18  and  C27_40 
REMARK    4  A    between atoms: O10_20  and  C28_41 
REMARK    5  A    between atoms: O12_24  and  C39_52 
REMARK    6  A    between atoms: O13_26  and  C40_53 
REMARK    7  A    between atoms: C34_47  and  C35_48 
REMARK    8  A    between atoms: C35_48  and  C36_49 
REMARK    9  A    between atoms: C36_49  and  C37_50 
ROOT
HETATM    1  C1  RAP A 108       5.829   4.293  -9.595  1.00  5.98     0.292 C 
HETATM    2  O1  RAP A 108       6.696   3.188  -9.374  1.00  9.08    -0.302 OA
HETATM    3  C2  RAP A 108       4.456   4.130 -10.246  1.00  6.42     0.171 C 
HETATM    4  O2  RAP A 108       6.224   5.411  -9.274  1.00 14.08    -0.262 OA
HETATM    5  C3  RAP A 108       3.400   4.943  -9.511  1.00  5.50     0.033 C 
HETATM    6  O3  RAP A 108       4.429   2.708 -12.517  1.00 10.38    -0.264 OA
HETATM    7  C4  RAP A 108       2.971   4.331  -8.186  1.00  4.49     0.004 C 
HETATM    8  O4  RAP A 108       2.380   0.562 -11.932  1.00 10.60    -0.281 OA
HETATM    9  C5  RAP A 108       2.511   2.909  -8.449  1.00  4.19     0.024 C 
HETATM   10  O5  RAP A 108       4.733  -0.608 -10.172  1.00 10.76    -0.332 OA
HETATM   11  C6  RAP A 108       3.603   2.102  -9.080  1.00  3.25     0.105 C 
HETATM   12  N7  RAP A 108       3.963   2.752 -10.351  1.00  8.46    -0.307 N 
HETATM   13  C8  RAP A 108       4.025   2.096 -11.520  1.00 10.06     0.297 C 
HETATM   14  O8  RAP A 108      12.123   4.563  -1.663  1.00 18.31    -0.293 OA
HETATM   15  C9  RAP A 108       3.574   0.766 -11.679  1.00 11.13     0.279 C 
HETATM   16  C10 RAP A 108       4.517  -0.444 -11.554  1.00 16.59     0.246 C 
HETATM   17  C11 RAP A 108       5.910  -0.233 -12.276  1.00 10.40     0.059 C 
HETATM   18  O11 RAP A 108       6.213   3.051  -6.452  1.00  9.49    -0.296 OA
HETATM   19  C12 RAP A 108       6.926  -1.323 -11.864  1.00 12.17     0.008 C 
HETATM   20  C13 RAP A 108       6.965  -1.469 -10.349  1.00 12.80     0.030 C 
HETATM   21  C14 RAP A 108       5.584  -1.598  -9.715  1.00 10.37     0.121 C 
HETATM   22  C15 RAP A 108       5.685  -1.364  -8.218  1.00  5.94     0.064 C 
HETATM   23  C16 RAP A 108       6.389  -2.442  -7.403  1.00  9.79     0.136 C 
HETATM   24  C17 RAP A 108       6.454  -2.070  -5.937  1.00 15.52    -0.017 C 
HETATM   25  C18 RAP A 108       7.641  -1.827  -5.398  1.00 14.38    -0.006 C 
HETATM   26  C19 RAP A 108       7.863  -1.428  -4.001  1.00  9.73    -0.001 C 
HETATM   27  C20 RAP A 108       9.104  -1.264  -3.567  1.00 10.26    -0.000 C 
HETATM   28  C21 RAP A 108       9.379  -0.768  -2.206  1.00 11.40    -0.005 C 
HETATM   29  C22 RAP A 108      10.591  -0.407  -1.829  1.00 17.77    -0.026 C 
HETATM   30  C23 RAP A 108      10.914   0.210  -0.485  1.00 15.64     0.022 C 
HETATM   31  C24 RAP A 108      11.599   1.536  -0.769  1.00 14.68     0.012 C 
HETATM   32  C25 RAP A 108      10.886   2.502  -1.697  1.00 11.87     0.061 C 
HETATM   33  C26 RAP A 108      11.860   3.525  -2.265  1.00 11.65     0.180 C 
HETATM   34  C27 RAP A 108      12.480   3.202  -3.621  1.00  8.13     0.203 C 
HETATM   35  C28 RAP A 108      11.575   3.602  -4.831  1.00 10.80     0.163 C 
HETATM   36  C29 RAP A 108      10.479   2.568  -5.149  1.00  9.60    -0.019 C 
HETATM   37  C30 RAP A 108       9.183   2.797  -4.942  1.00  8.55    -0.025 C 
HETATM   38  C31 RAP A 108       7.969   1.904  -5.239  1.00  8.43     0.079 C 
HETATM   39  C32 RAP A 108       7.263   2.403  -6.500  1.00 10.69     0.157 C 
HETATM   40  C33 RAP A 108       7.968   2.097  -7.817  1.00  6.51     0.095 C 
HETATM   41  C34 RAP A 108       7.940   3.273  -8.771  1.00  9.62     0.132 C 
HETATM   42  C43 RAP A 108       5.842  -0.104 -13.827  1.00 11.25     0.005 C 
HETATM   43  C44 RAP A 108       5.106  -2.042  -5.194  1.00 14.40     0.029 C 
HETATM   44  C45 RAP A 108      11.819  -0.701   0.331  1.00  9.23     0.005 C 
HETATM   45  C46 RAP A 108       9.712   3.194  -0.999  1.00 15.99     0.008 C 
HETATM   46  C47 RAP A 108      11.001   1.257  -5.707  1.00 14.60     0.029 C 
HETATM   47  C48 RAP A 108       7.004   1.965  -4.045  1.00  9.37     0.013 C 
ENDROOT
BRANCH  41  48
HETATM   48  C35 RAP A 108       8.964   3.310  -9.923  1.00  9.58     0.028 C 
HETATM   49  C49 RAP A 108       8.590   2.386 -11.046  1.00  8.29     0.003 C 
BRANCH  48  50
HETATM   50  C36 RAP A 108      10.383   3.018  -9.441  1.00 10.31     0.003 C 
BRANCH  50  51
HETATM   51  C37 RAP A 108      11.264   4.217  -9.084  1.00 22.90     0.003 C 
HETATM   52  C38 RAP A 108      10.554   5.103  -8.054  1.00 14.17     0.032 C 
HETATM   53  C39 RAP A 108      11.325   6.385  -7.735  1.00 34.20     0.142 C 
HETATM   54  C40 RAP A 108      12.795   6.036  -7.318  1.00 38.24     0.138 C 
HETATM   55  C41 RAP A 108      13.512   5.116  -8.326  1.00 16.32     0.032 C 
HETATM   56  C42 RAP A 108      12.679   3.876  -8.617  1.00 14.05     0.003 C 
BRANCH  53  57
HETATM   57  O12 RAP A 108      10.648   7.005  -6.672  1.00 30.82    -0.352 OA
HETATM   58  C52 RAP A 108      10.177   8.289  -6.897  1.00 28.14     0.174 C 
ENDBRANCH  53  57
BRANCH  54  59
HETATM   59  O13 RAP A 108      13.540   7.244  -7.177  1.00 28.84    -0.382 OA
HETATM   60  HO3 RAP A 108      13.823   7.555  -8.047  1.00 13.32     0.210 HD
ENDBRANCH  54  59
ENDBRANCH  50  51
ENDBRANCH  48  50
ENDBRANCH  41  48
BRANCH  35  61
HETATM   61  O10 RAP A 108      10.976   4.867  -4.523  1.00 12.16    -0.378 OA
HETATM   62  HO1 RAP A 108      10.163   5.008  -5.029  1.00 13.32     0.211 HD
ENDBRANCH  35  61
BRANCH  16  63
HETATM   63  O6  RAP A 108       3.872  -1.590 -12.117  1.00 14.16    -0.358 OA
HETATM   64  HO6 RAP A 108       4.181  -1.691 -13.023  1.00 13.32     0.213 HD
ENDBRANCH  16  63
BRANCH  34  65
HETATM   65  O9  RAP A 108      13.673   3.927  -3.753  1.00 23.09    -0.344 OA
HETATM   66  C51 RAP A 108      14.396   3.683  -4.909  1.00 19.04     0.175 C 
ENDBRANCH  34  65
BRANCH  23  67
HETATM   67  O7  RAP A 108       5.669  -3.625  -7.550  1.00 20.17    -0.350 OA
HETATM   68  C50 RAP A 108       6.418  -4.785  -7.725  1.00 28.36     0.175 C 
ENDBRANCH  23  67
TORSDOF 9
ENDMDL
