MODEL 1
REMARK VINA RESULT:    -6.191      0.000      0.000
REMARK INTER + INTRA:         -11.262
REMARK INTER:                  -8.905
REMARK INTRA:                  -2.357
REMARK UNBOUND:                -2.357
REMARK  9 active torsions:
REMARK  status: ('A' for Active; 'I' for Inactive)
REMARK    1  A    between atoms: O6_12  and  C10_19 
REMARK    2  A    between atoms: O7_14  and  C16_29 
REMARK    3  A    between atoms: O9_18  and  C27_40 
REMARK    4  A    between atoms: O10_20  and  C28_41 
REMARK    5  A    between atoms: O12_24  and  C39_52 
REMARK    6  A    between atoms: O13_26  and  C40_53 
REMARK    7  A    between atoms: C34_47  and  C35_48 
REMARK    8  A    between atoms: C35_48  and  C36_49 
REMARK    9  A    between atoms: C36_49  and  C37_50 
ROOT
HETATM    1  C1  RAP A 108      11.389  -3.783  29.489  1.00  5.98     0.292 C 
HETATM    2  O1  RAP A 108      11.473  -2.680  28.597  1.00  9.08    -0.302 OA
HETATM    3  C2  RAP A 108      12.617  -4.601  29.887  1.00  6.42     0.171 C 
HETATM    4  O2  RAP A 108      10.282  -4.094  29.922  1.00 14.08    -0.262 OA
HETATM    5  C3  RAP A 108      12.624  -4.889  31.381  1.00  5.50     0.033 C 
HETATM    6  O3  RAP A 108      14.154  -5.418  27.851  1.00 10.38    -0.264 OA
HETATM    7  C4  RAP A 108      13.007  -3.688  32.234  1.00  4.49     0.004 C 
HETATM    8  O4  RAP A 108      16.882  -4.356  28.610  1.00 10.60    -0.281 OA
HETATM    9  C5  RAP A 108      14.350  -3.173  31.749  1.00  4.19     0.024 C 
HETATM   10  O5  RAP A 108      15.594  -1.611  27.712  1.00 10.76    -0.332 OA
HETATM   11  C6  RAP A 108      14.287  -2.802  30.299  1.00  3.25     0.105 C 
HETATM   12  N7  RAP A 108      13.914  -4.008  29.542  1.00  8.46    -0.307 N 
HETATM   13  C8  RAP A 108      14.602  -4.450  28.478  1.00 10.06     0.297 C 
HETATM   14  O8  RAP A 108       4.856   3.879  30.599  1.00 18.31    -0.293 OA
HETATM   15  C9  RAP A 108      15.850  -3.912  28.093  1.00 11.13     0.279 C 
HETATM   16  C10 RAP A 108      15.976  -2.791  27.045  1.00 16.59     0.246 C 
HETATM   17  C11 RAP A 108      15.041  -3.001  25.784  1.00 10.40     0.059 C 
HETATM   18  O11 RAP A 108      11.179  -0.612  30.701  1.00  9.49    -0.296 OA
HETATM   19  C12 RAP A 108      14.964  -1.719  24.924  1.00 12.17     0.008 C 
HETATM   20  C13 RAP A 108      14.661  -0.509  25.796  1.00 12.80     0.030 C 
HETATM   21  C14 RAP A 108      15.553  -0.409  27.029  1.00 10.37     0.121 C 
HETATM   22  C15 RAP A 108      14.955   0.579  28.015  1.00  5.94     0.064 C 
HETATM   23  C16 RAP A 108      14.988   2.049  27.615  1.00  9.79     0.136 C 
HETATM   24  C17 RAP A 108      14.330   2.920  28.663  1.00 15.52    -0.017 C 
HETATM   25  C18 RAP A 108      13.205   3.549  28.348  1.00 14.38    -0.006 C 
HETATM   26  C19 RAP A 108      12.437   4.403  29.264  1.00  9.73    -0.001 C 
HETATM   27  C20 RAP A 108      11.353   5.020  28.814  1.00 10.26    -0.000 C 
HETATM   28  C21 RAP A 108      10.491   5.807  29.715  1.00 11.40    -0.005 C 
HETATM   29  C22 RAP A 108       9.309   6.254  29.332  1.00 17.77    -0.026 C 
HETATM   30  C23 RAP A 108       8.337   6.970  30.244  1.00 15.64     0.022 C 
HETATM   31  C24 RAP A 108       7.038   6.185  30.197  1.00 14.68     0.012 C 
HETATM   32  C25 RAP A 108       7.114   4.697  30.482  1.00 11.87     0.061 C 
HETATM   33  C26 RAP A 108       5.887   3.978  29.938  1.00 11.65     0.180 C 
HETATM   34  C27 RAP A 108       6.008   3.377  28.542  1.00  8.13     0.203 C 
HETATM   35  C28 RAP A 108       6.669   1.961  28.526  1.00 10.80     0.163 C 
HETATM   36  C29 RAP A 108       8.208   1.998  28.582  1.00  9.60    -0.019 C 
HETATM   37  C30 RAP A 108       8.906   1.598  29.644  1.00  8.55    -0.025 C 
HETATM   38  C31 RAP A 108      10.427   1.528  29.848  1.00  8.43     0.079 C 
HETATM   39  C32 RAP A 108      10.895   0.079  29.717  1.00 10.69     0.157 C 
HETATM   40  C33 RAP A 108      10.935  -0.477  28.298  1.00  6.51     0.095 C 
HETATM   41  C34 RAP A 108      10.400  -1.891  28.218  1.00  9.62     0.132 C 
HETATM   42  C43 RAP A 108      15.386  -4.236  24.900  1.00 11.25     0.005 C 
HETATM   43  C44 RAP A 108      15.066   3.016  30.012  1.00 14.40     0.029 C 
HETATM   44  C45 RAP A 108       8.117   8.405  29.788  1.00  9.23     0.005 C 
HETATM   45  C46 RAP A 108       7.294   4.416  31.976  1.00 15.99     0.008 C 
HETATM   46  C47 RAP A 108       8.864   2.545  27.328  1.00 14.60     0.029 C 
HETATM   47  C48 RAP A 108      10.763   2.057  31.251  1.00  9.37     0.013 C 
ENDROOT
BRANCH  41  48
HETATM   48  C35 RAP A 108       9.946  -2.429  26.846  1.00  9.58     0.028 C 
HETATM   49  C49 RAP A 108       8.569  -3.026  26.896  1.00  8.29     0.003 C 
BRANCH  48  50
HETATM   50  C36 RAP A 108      10.942  -3.431  26.263  1.00 10.31     0.003 C 
BRANCH  50  51
HETATM   51  C37 RAP A 108      11.533  -3.113  24.888  1.00 22.90     0.003 C 
HETATM   52  C38 RAP A 108      11.821  -4.412  24.126  1.00 14.17     0.032 C 
HETATM   53  C39 RAP A 108      12.523  -4.176  22.788  1.00 34.20     0.142 C 
HETATM   54  C40 RAP A 108      11.711  -3.144  21.931  1.00 38.24     0.138 C 
HETATM   55  C41 RAP A 108      11.382  -1.846  22.696  1.00 16.32     0.032 C 
HETATM   56  C42 RAP A 108      10.711  -2.154  24.026  1.00 14.05     0.003 C 
BRANCH  53  57
HETATM   57  O12 RAP A 108      12.572  -5.421  22.138  1.00 30.82    -0.352 OA
HETATM   58  C52 RAP A 108      12.900  -6.519  22.918  1.00 28.14     0.174 C 
ENDBRANCH  53  57
BRANCH  54  59
HETATM   59  O13 RAP A 108      12.457  -2.820  20.760  1.00 28.84    -0.382 OA
HETATM   60  HO3 RAP A 108      13.302  -3.287  20.772  1.00 13.32     0.210 HD
ENDBRANCH  54  59
ENDBRANCH  50  51
ENDBRANCH  48  50
ENDBRANCH  41  48
BRANCH  35  61
HETATM   61  O10 RAP A 108       6.159   1.234  29.652  1.00 12.16    -0.378 OA
HETATM   62  HO1 RAP A 108       6.333   1.700  30.484  1.00 13.32     0.211 HD
ENDBRANCH  35  61
BRANCH  16  63
HETATM   63  O6  RAP A 108      17.336  -2.721  26.607  1.00 14.16    -0.358 OA
HETATM   64  HO6 RAP A 108      17.336  -2.520  25.667  1.00 13.32     0.213 HD
ENDBRANCH  16  63
BRANCH  34  65
HETATM   65  O9  RAP A 108       4.721   3.227  28.004  1.00 23.09    -0.344 OA
HETATM   66  C51 RAP A 108       4.652   3.172  26.622  1.00 19.04     0.175 C 
ENDBRANCH  34  65
BRANCH  23  67
HETATM   67  O7  RAP A 108      16.323   2.422  27.473  1.00 20.17    -0.350 OA
HETATM   68  C50 RAP A 108      16.707   2.867  26.212  1.00 28.36     0.175 C 
ENDBRANCH  23  67
TORSDOF 9
ENDMDL
MODEL 2
REMARK VINA RESULT:    -5.762      3.873      8.197
REMARK INTER + INTRA:         -10.644
REMARK INTER:                  -8.013
REMARK INTRA:                  -2.631
REMARK UNBOUND:                -2.357
REMARK  9 active torsions:
REMARK  status: ('A' for Active; 'I' for Inactive)
REMARK    1  A    between atoms: O6_12  and  C10_19 
REMARK    2  A    between atoms: O7_14  and  C16_29 
REMARK    3  A    between atoms: O9_18  and  C27_40 
REMARK    4  A    between atoms: O10_20  and  C28_41 
REMARK    5  A    between atoms: O12_24  and  C39_52 
REMARK    6  A    between atoms: O13_26  and  C40_53 
REMARK    7  A    between atoms: C34_47  and  C35_48 
REMARK    8  A    between atoms: C35_48  and  C36_49 
REMARK    9  A    between atoms: C36_49  and  C37_50 
ROOT
HETATM    1  C1  RAP A 108      12.741  -3.594  22.228  1.00  5.98     0.292 C 
HETATM    2  O1  RAP A 108      12.986  -3.345  23.606  1.00  9.08    -0.302 OA
HETATM    3  C2  RAP A 108      13.812  -4.173  21.304  1.00  6.42     0.171 C 
HETATM    4  O2  RAP A 108      11.637  -3.300  21.775  1.00 14.08    -0.262 OA
HETATM    5  C3  RAP A 108      13.234  -5.255  20.404  1.00  5.50     0.033 C 
HETATM    6  O3  RAP A 108      16.197  -2.959  21.419  1.00 10.38    -0.264 OA
HETATM    7  C4  RAP A 108      12.977  -6.573  21.121  1.00  4.49     0.004 C 
HETATM    8  O4  RAP A 108      18.079  -5.249  22.023  1.00 10.60    -0.281 OA
HETATM    9  C5  RAP A 108      14.273  -7.013  21.778  1.00  4.19     0.024 C 
HETATM   10  O5  RAP A 108      16.800  -4.981  24.903  1.00 10.76    -0.332 OA
HETATM   11  C6  RAP A 108      14.767  -5.972  22.735  1.00  3.25     0.105 C 
HETATM   12  N7  RAP A 108      14.991  -4.733  21.973  1.00  8.46    -0.307 N 
HETATM   13  C8  RAP A 108      16.139  -4.039  22.021  1.00 10.06     0.297 C 
HETATM   14  O8  RAP A 108       5.029  -4.349  28.753  1.00 18.31    -0.293 OA
HETATM   15  C9  RAP A 108      17.303  -4.523  22.658  1.00 11.13     0.279 C 
HETATM   16  C10 RAP A 108      17.649  -4.177  24.117  1.00 16.59     0.246 C 
HETATM   17  C11 RAP A 108      17.402  -2.655  24.478  1.00 10.40     0.059 C 
HETATM   18  O11 RAP A 108      11.430  -5.674  24.578  1.00  9.49    -0.296 OA
HETATM   19  C12 RAP A 108      17.458  -2.424  26.005  1.00 12.17     0.008 C 
HETATM   20  C13 RAP A 108      16.585  -3.440  26.729  1.00 12.80     0.030 C 
HETATM   21  C14 RAP A 108      16.826  -4.878  26.282  1.00 10.37     0.121 C 
HETATM   22  C15 RAP A 108      15.687  -5.761  26.760  1.00  5.94     0.064 C 
HETATM   23  C16 RAP A 108      15.606  -6.020  28.260  1.00  9.79     0.136 C 
HETATM   24  C17 RAP A 108      14.410  -6.880  28.606  1.00 15.52    -0.017 C 
HETATM   25  C18 RAP A 108      13.431  -6.343  29.322  1.00 14.38    -0.006 C 
HETATM   26  C19 RAP A 108      12.196  -7.039  29.711  1.00  9.73    -0.001 C 
HETATM   27  C20 RAP A 108      11.314  -6.409  30.473  1.00 10.26    -0.000 C 
HETATM   28  C21 RAP A 108      10.016  -7.024  30.809  1.00 11.40    -0.005 C 
HETATM   29  C22 RAP A 108       9.051  -6.336  31.390  1.00 17.77    -0.026 C 
HETATM   30  C23 RAP A 108       7.665  -6.880  31.659  1.00 15.64     0.022 C 
HETATM   31  C24 RAP A 108       6.687  -5.934  30.985  1.00 14.68     0.012 C 
HETATM   32  C25 RAP A 108       6.918  -5.627  29.517  1.00 11.87     0.061 C 
HETATM   33  C26 RAP A 108       6.204  -4.344  29.113  1.00 11.65     0.180 C 
HETATM   34  C27 RAP A 108       7.024  -3.058  29.166  1.00  8.13     0.203 C 
HETATM   35  C28 RAP A 108       7.885  -2.814  27.886  1.00 10.80     0.163 C 
HETATM   36  C29 RAP A 108       9.214  -3.594  27.878  1.00  9.60    -0.019 C 
HETATM   37  C30 RAP A 108       9.452  -4.613  27.054  1.00  8.55    -0.025 C 
HETATM   38  C31 RAP A 108      10.721  -5.462  26.886  1.00  8.43     0.079 C 
HETATM   39  C32 RAP A 108      11.468  -5.022  25.626  1.00 10.69     0.157 C 
HETATM   40  C33 RAP A 108      12.217  -3.698  25.731  1.00  6.51     0.095 C 
HETATM   41  C34 RAP A 108      12.049  -2.842  24.493  1.00  9.62     0.132 C 
HETATM   42  C43 RAP A 108      18.322  -1.639  23.736  1.00 11.25     0.005 C 
HETATM   43  C44 RAP A 108      14.465  -8.335  28.107  1.00 14.40     0.029 C 
HETATM   44  C45 RAP A 108       7.391  -6.964  33.154  1.00  9.23     0.005 C 
HETATM   45  C46 RAP A 108       6.491  -6.793  28.622  1.00 15.99     0.008 C 
HETATM   46  C47 RAP A 108      10.225  -3.112  28.901  1.00 14.60     0.029 C 
HETATM   47  C48 RAP A 108      10.317  -6.939  26.760  1.00  9.37     0.013 C 
ENDROOT
BRANCH  41  48
HETATM   48  C35 RAP A 108      12.339  -1.331  24.599  1.00  9.58     0.028 C 
HETATM   49  C49 RAP A 108      11.530  -0.528  23.622  1.00  8.29     0.003 C 
BRANCH  48  50
HETATM   50  C36 RAP A 108      13.826  -1.018  24.446  1.00 10.31     0.003 C 
BRANCH  50  51
HETATM   51  C37 RAP A 108      14.559  -0.478  25.676  1.00 22.90     0.003 C 
HETATM   52  C38 RAP A 108      15.489   0.671  25.271  1.00 14.17     0.032 C 
HETATM   53  C39 RAP A 108      16.344   1.185  26.431  1.00 34.20     0.142 C 
HETATM   54  C40 RAP A 108      15.429   1.552  27.650  1.00 38.24     0.138 C 
HETATM   55  C41 RAP A 108      14.463   0.418  28.047  1.00 16.32     0.032 C 
HETATM   56  C42 RAP A 108      13.664  -0.063  26.843  1.00 14.05     0.003 C 
BRANCH  53  57
HETATM   57  O12 RAP A 108      17.013   2.327  25.959  1.00 30.82    -0.352 OA
HETATM   58  C52 RAP A 108      18.181   2.115  25.244  1.00 28.14     0.174 C 
ENDBRANCH  53  57
BRANCH  54  59
HETATM   59  O13 RAP A 108      16.250   1.878  28.769  1.00 28.84    -0.382 OA
HETATM   60  HO3 RAP A 108      15.712   1.908  29.570  1.00 13.32     0.210 HD
ENDBRANCH  54  59
ENDBRANCH  50  51
ENDBRANCH  48  50
ENDBRANCH  41  48
BRANCH  35  61
HETATM   61  O10 RAP A 108       7.092  -3.193  26.753  1.00 12.16    -0.378 OA
HETATM   62  HO1 RAP A 108       6.315  -2.622  26.656  1.00 13.32     0.211 HD
ENDBRANCH  35  61
BRANCH  16  63
HETATM   63  O6  RAP A 108      19.024  -4.492  24.352  1.00 14.16    -0.358 OA
HETATM   64  HO6 RAP A 108      19.095  -4.885  25.227  1.00 13.32     0.213 HD
ENDBRANCH  16  63
BRANCH  34  65
HETATM   65  O9  RAP A 108       6.145  -1.970  29.275  1.00 23.09    -0.344 OA
HETATM   66  C51 RAP A 108       6.740  -0.743  29.514  1.00 19.04     0.175 C 
ENDBRANCH  34  65
BRANCH  23  67
HETATM   67  O7  RAP A 108      16.775  -6.676  28.642  1.00 20.17    -0.350 OA
HETATM   68  C50 RAP A 108      17.391  -6.211  29.800  1.00 28.36     0.175 C 
ENDBRANCH  23  67
TORSDOF 9
ENDMDL
MODEL 3
REMARK VINA RESULT:    -5.740      2.935      8.901
REMARK INTER + INTRA:         -10.614
REMARK INTER:                  -8.370
REMARK INTRA:                  -2.243
REMARK UNBOUND:                -2.357
REMARK  9 active torsions:
REMARK  status: ('A' for Active; 'I' for Inactive)
REMARK    1  A    between atoms: O6_12  and  C10_19 
REMARK    2  A    between atoms: O7_14  and  C16_29 
REMARK    3  A    between atoms: O9_18  and  C27_40 
REMARK    4  A    between atoms: O10_20  and  C28_41 
REMARK    5  A    between atoms: O12_24  and  C39_52 
REMARK    6  A    between atoms: O13_26  and  C40_53 
REMARK    7  A    between atoms: C34_47  and  C35_48 
REMARK    8  A    between atoms: C35_48  and  C36_49 
REMARK    9  A    between atoms: C36_49  and  C37_50 
ROOT
HETATM    1  C1  RAP A 108       8.409   2.689  27.854  1.00  5.98     0.292 C 
HETATM    2  O1  RAP A 108       9.260   1.853  28.626  1.00  9.08    -0.302 OA
HETATM    3  C2  RAP A 108       7.379   3.617  28.498  1.00  6.42     0.171 C 
HETATM    4  O2  RAP A 108       8.496   2.630  26.629  1.00 14.08    -0.262 OA
HETATM    5  C3  RAP A 108       7.386   4.988  27.837  1.00  5.50     0.033 C 
HETATM    6  O3  RAP A 108       5.809   2.475  30.344  1.00 10.38    -0.264 OA
HETATM    7  C4  RAP A 108       8.577   5.849  28.230  1.00  4.49     0.004 C 
HETATM    8  O4  RAP A 108       6.218   4.254  32.755  1.00 10.60    -0.281 OA
HETATM    9  C5  RAP A 108       8.609   5.949  29.744  1.00  4.19     0.024 C 
HETATM   10  O5  RAP A 108       8.989   2.735  32.875  1.00 10.76    -0.332 OA
HETATM   11  C6  RAP A 108       8.704   4.590  30.367  1.00  3.25     0.105 C 
HETATM   12  N7  RAP A 108       7.524   3.819  29.943  1.00  8.46    -0.307 N 
HETATM   13  C8  RAP A 108       6.721   3.174  30.804  1.00 10.06     0.297 C 
HETATM   14  O8  RAP A 108      17.618   0.476  24.261  1.00 18.31    -0.293 OA
HETATM   15  C9  RAP A 108       6.819   3.323  32.205  1.00 11.13     0.279 C 
HETATM   16  C10 RAP A 108       7.646   2.362  33.079  1.00 16.59     0.246 C 
HETATM   17  C11 RAP A 108       7.463   0.839  32.686  1.00 10.40     0.059 C 
HETATM   18  O11 RAP A 108      11.688   3.509  28.235  1.00  9.49    -0.296 OA
HETATM   19  C12 RAP A 108       8.533  -0.047  33.366  1.00 12.17     0.008 C 
HETATM   20  C13 RAP A 108       9.921   0.543  33.160  1.00 12.80     0.030 C 
HETATM   21  C14 RAP A 108      10.006   2.029  33.491  1.00 10.37     0.121 C 
HETATM   22  C15 RAP A 108      11.286   2.609  32.916  1.00  5.94     0.064 C 
HETATM   23  C16 RAP A 108      12.590   2.175  33.574  1.00  9.79     0.136 C 
HETATM   24  C17 RAP A 108      13.788   2.793  32.885  1.00 15.52    -0.017 C 
HETATM   25  C18 RAP A 108      14.626   1.995  32.237  1.00 14.38    -0.006 C 
HETATM   26  C19 RAP A 108      15.813   2.447  31.498  1.00  9.73    -0.001 C 
HETATM   27  C20 RAP A 108      16.604   1.545  30.933  1.00 10.26    -0.000 C 
HETATM   28  C21 RAP A 108      17.749   1.949  30.097  1.00 11.40    -0.005 C 
HETATM   29  C22 RAP A 108      18.418   1.076  29.367  1.00 17.77    -0.026 C 
HETATM   30  C23 RAP A 108      19.529   1.446  28.409  1.00 15.64     0.022 C 
HETATM   31  C24 RAP A 108      19.130   0.900  27.049  1.00 14.68     0.012 C 
HETATM   32  C25 RAP A 108      17.758   1.278  26.523  1.00 11.87     0.061 C 
HETATM   33  C26 RAP A 108      17.308   0.310  25.438  1.00 11.65     0.180 C 
HETATM   34  C27 RAP A 108      16.446  -0.867  25.884  1.00  8.13     0.203 C 
HETATM   35  C28 RAP A 108      14.927  -0.517  26.002  1.00 10.80     0.163 C 
HETATM   36  C29 RAP A 108      14.557   0.182  27.324  1.00  9.60    -0.019 C 
HETATM   37  C30 RAP A 108      14.190   1.462  27.390  1.00  8.55    -0.025 C 
HETATM   38  C31 RAP A 108      13.751   2.294  28.604  1.00  8.43     0.079 C 
HETATM   39  C32 RAP A 108      12.232   2.459  28.590  1.00 10.69     0.157 C 
HETATM   40  C33 RAP A 108      11.429   1.226  28.989  1.00  6.51     0.095 C 
HETATM   41  C34 RAP A 108      10.223   1.010  28.099  1.00  9.62     0.132 C 
HETATM   42  C43 RAP A 108       6.038   0.258  32.924  1.00 11.25     0.005 C 
HETATM   43  C44 RAP A 108      13.932   4.318  33.035  1.00 14.40     0.029 C 
HETATM   44  C45 RAP A 108      20.858   0.856  28.858  1.00  9.23     0.005 C 
HETATM   45  C46 RAP A 108      17.725   2.722  26.015  1.00 15.99     0.008 C 
HETATM   46  C47 RAP A 108      14.660  -0.706  28.550  1.00 14.60     0.029 C 
HETATM   47  C48 RAP A 108      14.424   3.674  28.528  1.00  9.37     0.013 C 
ENDROOT
BRANCH  41  48
HETATM   48  C35 RAP A 108       9.580  -0.391  28.059  1.00  9.58     0.028 C 
HETATM   49  C49 RAP A 108       9.100  -0.835  29.411  1.00  8.29     0.003 C 
BRANCH  48  50
HETATM   50  C36 RAP A 108      10.514  -1.436  27.453  1.00 10.31     0.003 C 
BRANCH  50  51
HETATM   51  C37 RAP A 108      10.299  -1.803  25.983  1.00 22.90     0.003 C 
HETATM   52  C38 RAP A 108      11.488  -1.324  25.142  1.00 14.17     0.032 C 
HETATM   53  C39 RAP A 108      11.289  -1.552  23.642  1.00 34.20     0.142 C 
HETATM   54  C40 RAP A 108      10.926  -3.053  23.372  1.00 38.24     0.138 C 
HETATM   55  C41 RAP A 108       9.754  -3.560  24.237  1.00 16.32     0.032 C 
HETATM   56  C42 RAP A 108      10.005  -3.278  25.711  1.00 14.05     0.003 C 
BRANCH  53  57
HETATM   57  O12 RAP A 108      12.507  -1.224  23.024  1.00 30.82    -0.352 OA
HETATM   58  C52 RAP A 108      13.465  -2.224  22.962  1.00 28.14     0.174 C 
ENDBRANCH  53  57
BRANCH  54  59
HETATM   59  O13 RAP A 108      10.591  -3.212  21.994  1.00 28.84    -0.382 OA
HETATM   60  HO3 RAP A 108      10.011  -2.493  21.715  1.00 13.32     0.210 HD
ENDBRANCH  54  59
ENDBRANCH  50  51
ENDBRANCH  48  50
ENDBRANCH  41  48
BRANCH  35  61
HETATM   61  O10 RAP A 108      14.591   0.328  24.894  1.00 12.16    -0.378 OA
HETATM   62  HO1 RAP A 108      13.634   0.353  24.744  1.00 13.32     0.211 HD
ENDBRANCH  35  61
BRANCH  16  63
HETATM   63  O6  RAP A 108       7.262   2.538  34.446  1.00 14.16    -0.358 OA
HETATM   64  HO6 RAP A 108       7.354   3.470  34.664  1.00 13.32     0.213 HD
ENDBRANCH  16  63
BRANCH  34  65
HETATM   65  O9  RAP A 108      16.551  -1.888  24.928  1.00 23.09    -0.344 OA
HETATM   66  C51 RAP A 108      16.166  -3.148  25.355  1.00 19.04     0.175 C 
ENDBRANCH  34  65
BRANCH  23  67
HETATM   67  O7  RAP A 108      12.555   2.590  34.904  1.00 20.17    -0.350 OA
HETATM   68  C50 RAP A 108      13.259   1.805  35.813  1.00 28.36     0.175 C 
ENDBRANCH  23  67
TORSDOF 9
ENDMDL
MODEL 4
REMARK VINA RESULT:    -5.731      3.434     10.363
REMARK INTER + INTRA:         -10.600
REMARK INTER:                  -7.850
REMARK INTRA:                  -2.749
REMARK UNBOUND:                -2.357
REMARK  9 active torsions:
REMARK  status: ('A' for Active; 'I' for Inactive)
REMARK    1  A    between atoms: O6_12  and  C10_19 
REMARK    2  A    between atoms: O7_14  and  C16_29 
REMARK    3  A    between atoms: O9_18  and  C27_40 
REMARK    4  A    between atoms: O10_20  and  C28_41 
REMARK    5  A    between atoms: O12_24  and  C39_52 
REMARK    6  A    between atoms: O13_26  and  C40_53 
REMARK    7  A    between atoms: C34_47  and  C35_48 
REMARK    8  A    between atoms: C35_48  and  C36_49 
REMARK    9  A    between atoms: C36_49  and  C37_50 
ROOT
HETATM    1  C1  RAP A 108      12.665  -0.760  29.175  1.00  5.98     0.292 C 
HETATM    2  O1  RAP A 108      11.714  -1.558  28.482  1.00  9.08    -0.302 OA
HETATM    3  C2  RAP A 108      12.365  -0.140  30.539  1.00  6.42     0.171 C 
HETATM    4  O2  RAP A 108      13.747  -0.548  28.632  1.00 14.08    -0.262 OA
HETATM    5  C3  RAP A 108      13.545  -0.300  31.486  1.00  5.50     0.033 C 
HETATM    6  O3  RAP A 108      10.038   1.177  30.708  1.00 10.38    -0.264 OA
HETATM    7  C4  RAP A 108      13.701  -1.711  32.035  1.00  4.49     0.004 C 
HETATM    8  O4  RAP A 108       8.687  -0.162  33.060  1.00 10.60    -0.281 OA
HETATM    9  C5  RAP A 108      12.391  -2.112  32.687  1.00  4.19     0.024 C 
HETATM   10  O5  RAP A 108       8.253  -2.476  30.948  1.00 10.76    -0.332 OA
HETATM   11  C6  RAP A 108      11.262  -2.042  31.706  1.00  3.25     0.105 C 
HETATM   12  N7  RAP A 108      11.173  -0.655  31.221  1.00  8.46    -0.307 N 
HETATM   13  C8  RAP A 108      10.032   0.052  31.224  1.00 10.06     0.297 C 
HETATM   14  O8  RAP A 108      16.012  -8.162  23.124  1.00 18.31    -0.293 OA
HETATM   15  C9  RAP A 108       8.852  -0.397  31.856  1.00 11.13     0.279 C 
HETATM   16  C10 RAP A 108       7.754  -1.167  31.100  1.00 16.59     0.246 C 
HETATM   17  C11 RAP A 108       7.432  -0.564  29.672  1.00 10.40     0.059 C 
HETATM   18  O11 RAP A 108      13.058  -4.136  29.058  1.00  9.49    -0.296 OA
HETATM   19  C12 RAP A 108       6.568  -1.536  28.835  1.00 12.17     0.008 C 
HETATM   20  C13 RAP A 108       7.167  -2.935  28.858  1.00 12.80     0.030 C 
HETATM   21  C14 RAP A 108       7.517  -3.424  30.260  1.00 10.37     0.121 C 
HETATM   22  C15 RAP A 108       8.431  -4.633  30.168  1.00  5.94     0.064 C 
HETATM   23  C16 RAP A 108       7.807  -5.923  29.648  1.00  9.79     0.136 C 
HETATM   24  C17 RAP A 108       8.830  -7.037  29.570  1.00 15.52    -0.017 C 
HETATM   25  C18 RAP A 108       9.166  -7.503  28.375  1.00 14.38    -0.006 C 
HETATM   26  C19 RAP A 108      10.161  -8.558  28.136  1.00  9.73    -0.001 C 
HETATM   27  C20 RAP A 108      10.373  -8.976  26.896  1.00 10.26    -0.000 C 
HETATM   28  C21 RAP A 108      11.429  -9.958  26.590  1.00 11.40    -0.005 C 
HETATM   29  C22 RAP A 108      11.788 -10.230  25.349  1.00 17.77    -0.026 C 
HETATM   30  C23 RAP A 108      12.935 -11.144  24.977  1.00 15.64     0.022 C 
HETATM   31  C24 RAP A 108      13.873 -10.331  24.102  1.00 14.68     0.012 C 
HETATM   32  C25 RAP A 108      14.345  -8.994  24.643  1.00 11.87     0.061 C 
HETATM   33  C26 RAP A 108      14.850  -8.102  23.517  1.00 11.65     0.180 C 
HETATM   34  C27 RAP A 108      13.846  -7.126  22.914  1.00  8.13     0.203 C 
HETATM   35  C28 RAP A 108      13.712  -5.793  23.718  1.00 10.80     0.163 C 
HETATM   36  C29 RAP A 108      12.784  -5.902  24.943  1.00  9.60    -0.019 C 
HETATM   37  C30 RAP A 108      13.230  -5.855  26.198  1.00  8.55    -0.025 C 
HETATM   38  C31 RAP A 108      12.448  -5.905  27.519  1.00  8.43     0.079 C 
HETATM   39  C32 RAP A 108      12.353  -4.499  28.111  1.00 10.69     0.157 C 
HETATM   40  C33 RAP A 108      11.373  -3.556  27.423  1.00  6.51     0.095 C 
HETATM   41  C34 RAP A 108      11.938  -2.160  27.255  1.00  9.62     0.132 C 
HETATM   42  C43 RAP A 108       6.803   0.861  29.679  1.00 11.25     0.005 C 
HETATM   43  C44 RAP A 108       9.365  -7.548  30.919  1.00 14.40     0.029 C 
HETATM   44  C45 RAP A 108      12.435 -12.374  24.235  1.00  9.23     0.005 C 
HETATM   45  C46 RAP A 108      15.415  -9.168  25.724  1.00 15.99     0.008 C 
HETATM   46  C47 RAP A 108      11.318  -6.084  24.600  1.00 14.60     0.029 C 
HETATM   47  C48 RAP A 108      13.185  -6.832  28.497  1.00  9.37     0.013 C 
ENDROOT
BRANCH  41  48
HETATM   48  C35 RAP A 108      11.299  -1.229  26.206  1.00  9.58     0.028 C 
HETATM   49  C49 RAP A 108      10.233  -0.352  26.798  1.00  8.29     0.003 C 
BRANCH  48  50
HETATM   50  C36 RAP A 108      10.751  -2.003  25.008  1.00 10.31     0.003 C 
BRANCH  50  51
HETATM   51  C37 RAP A 108      11.571  -1.970  23.717  1.00 22.90     0.003 C 
HETATM   52  C38 RAP A 108      13.051  -2.222  24.028  1.00 14.17     0.032 C 
HETATM   53  C39 RAP A 108      13.951  -2.089  22.798  1.00 34.20     0.142 C 
HETATM   54  C40 RAP A 108      13.416  -3.000  21.641  1.00 38.24     0.138 C 
HETATM   55  C41 RAP A 108      11.919  -2.784  21.340  1.00 16.32     0.032 C 
HETATM   56  C42 RAP A 108      11.086  -2.904  22.608  1.00 14.05     0.003 C 
BRANCH  53  57
HETATM   57  O12 RAP A 108      15.233  -2.503  23.195  1.00 30.82    -0.352 OA
HETATM   58  C52 RAP A 108      16.155  -1.505  23.470  1.00 28.14     0.174 C 
ENDBRANCH  53  57
BRANCH  54  59
HETATM   59  O13 RAP A 108      14.171  -2.745  20.458  1.00 28.84    -0.382 OA
HETATM   60  HO3 RAP A 108      14.054  -1.825  20.190  1.00 13.32     0.210 HD
ENDBRANCH  54  59
ENDBRANCH  50  51
ENDBRANCH  48  50
ENDBRANCH  41  48
BRANCH  35  61
HETATM   61  O10 RAP A 108      15.028  -5.407  24.138  1.00 12.16    -0.378 OA
HETATM   62  HO1 RAP A 108      15.299  -4.571  23.731  1.00 13.32     0.211 HD
ENDBRANCH  35  61
BRANCH  16  63
HETATM   63  O6  RAP A 108       6.559  -1.157  31.888  1.00 14.16    -0.358 OA
HETATM   64  HO6 RAP A 108       5.978  -1.848  31.556  1.00 13.32     0.213 HD
ENDBRANCH  16  63
BRANCH  34  65
HETATM   65  O9  RAP A 108      14.277  -6.777  21.625  1.00 23.09    -0.344 OA
HETATM   66  C51 RAP A 108      13.272  -6.498  20.714  1.00 19.04     0.175 C 
ENDBRANCH  34  65
BRANCH  23  67
HETATM   67  O7  RAP A 108       6.790  -6.288  30.527  1.00 20.17    -0.350 OA
HETATM   68  C50 RAP A 108       5.587  -6.682  29.947  1.00 28.36     0.175 C 
ENDBRANCH  23  67
TORSDOF 9
ENDMDL
MODEL 5
REMARK VINA RESULT:    -5.714      5.038     11.268
REMARK INTER + INTRA:         -10.576
REMARK INTER:                  -8.135
REMARK INTRA:                  -2.441
REMARK UNBOUND:                -2.357
REMARK  9 active torsions:
REMARK  status: ('A' for Active; 'I' for Inactive)
REMARK    1  A    between atoms: O6_12  and  C10_19 
REMARK    2  A    between atoms: O7_14  and  C16_29 
REMARK    3  A    between atoms: O9_18  and  C27_40 
REMARK    4  A    between atoms: O10_20  and  C28_41 
REMARK    5  A    between atoms: O12_24  and  C39_52 
REMARK    6  A    between atoms: O13_26  and  C40_53 
REMARK    7  A    between atoms: C34_47  and  C35_48 
REMARK    8  A    between atoms: C35_48  and  C36_49 
REMARK    9  A    between atoms: C36_49  and  C37_50 
ROOT
HETATM    1  C1  RAP A 108       9.324  -3.124  30.163  1.00  5.98     0.292 C 
HETATM    2  O1  RAP A 108       8.982  -3.881  29.009  1.00  9.08    -0.302 OA
HETATM    3  C2  RAP A 108       8.498  -3.184  31.448  1.00  6.42     0.171 C 
HETATM    4  O2  RAP A 108      10.300  -2.380  30.098  1.00 14.08    -0.262 OA
HETATM    5  C3  RAP A 108       9.396  -3.276  32.673  1.00  5.50     0.033 C 
HETATM    6  O3  RAP A 108       5.857  -2.878  31.124  1.00 10.38    -0.264 OA
HETATM    7  C4  RAP A 108      10.018  -4.650  32.873  1.00  4.49     0.004 C 
HETATM    8  O4  RAP A 108       4.734  -5.352  32.453  1.00 10.60    -0.281 OA
HETATM    9  C5  RAP A 108       8.899  -5.675  32.911  1.00  4.19     0.024 C 
HETATM   10  O5  RAP A 108       5.803  -6.735  29.818  1.00 10.76    -0.332 OA
HETATM   11  C6  RAP A 108       8.092  -5.632  31.650  1.00  3.25     0.105 C 
HETATM   12  N7  RAP A 108       7.525  -4.279  31.526  1.00  8.46    -0.307 N 
HETATM   13  C8  RAP A 108       6.222  -4.046  31.309  1.00 10.06     0.297 C 
HETATM   14  O8  RAP A 108      16.745  -6.226  24.005  1.00 18.31    -0.293 OA
HETATM   15  C9  RAP A 108       5.241  -5.061  31.362  1.00 11.13     0.279 C 
HETATM   16  C10 RAP A 108       4.772  -5.821  30.108  1.00 16.59     0.246 C 
HETATM   17  C11 RAP A 108       4.542  -4.882  28.854  1.00 10.40     0.059 C 
HETATM   18  O11 RAP A 108      11.140  -5.884  29.355  1.00  9.49    -0.296 OA
HETATM   19  C12 RAP A 108       4.382  -5.708  27.557  1.00 12.17     0.008 C 
HETATM   20  C13 RAP A 108       5.502  -6.733  27.437  1.00 12.80     0.030 C 
HETATM   21  C14 RAP A 108       5.714  -7.553  28.706  1.00 10.37     0.121 C 
HETATM   22  C15 RAP A 108       7.053  -8.265  28.637  1.00  5.94     0.064 C 
HETATM   23  C16 RAP A 108       7.172  -9.404  27.631  1.00  9.79     0.136 C 
HETATM   24  C17 RAP A 108       8.562 -10.002  27.638  1.00 15.52    -0.017 C 
HETATM   25  C18 RAP A 108       9.317  -9.858  26.556  1.00 14.38    -0.006 C 
HETATM   26  C19 RAP A 108      10.693 -10.355  26.422  1.00  9.73    -0.001 C 
HETATM   27  C20 RAP A 108      11.328 -10.194  25.269  1.00 10.26    -0.000 C 
HETATM   28  C21 RAP A 108      12.741 -10.583  25.113  1.00 11.40    -0.005 C 
HETATM   29  C22 RAP A 108      13.441 -10.246  24.046  1.00 17.77    -0.026 C 
HETATM   30  C23 RAP A 108      14.920 -10.521  23.880  1.00 15.64     0.022 C 
HETATM   31  C24 RAP A 108      15.585  -9.182  23.613  1.00 14.68     0.012 C 
HETATM   32  C25 RAP A 108      15.309  -8.061  24.598  1.00 11.87     0.061 C 
HETATM   33  C26 RAP A 108      15.614  -6.705  23.974  1.00 11.65     0.180 C 
HETATM   34  C27 RAP A 108      14.446  -5.971  23.324  1.00  8.13     0.203 C 
HETATM   35  C28 RAP A 108      13.583  -5.152  24.337  1.00 10.80     0.163 C 
HETATM   36  C29 RAP A 108      12.550  -6.005  25.098  1.00  9.60    -0.019 C 
HETATM   37  C30 RAP A 108      12.648  -6.274  26.399  1.00  8.55    -0.025 C 
HETATM   38  C31 RAP A 108      11.696  -7.061  27.311  1.00  8.43     0.079 C 
HETATM   39  C32 RAP A 108      10.883  -6.088  28.164  1.00 10.69     0.157 C 
HETATM   40  C33 RAP A 108       9.769  -5.344  27.437  1.00  6.51     0.095 C 
HETATM   41  C34 RAP A 108       9.703  -3.881  27.827  1.00  9.62     0.132 C 
HETATM   42  C43 RAP A 108       3.378  -3.856  28.997  1.00 11.25     0.005 C 
HETATM   43  C44 RAP A 108       8.958 -10.761  28.917  1.00 14.40     0.029 C 
HETATM   44  C45 RAP A 108      15.170 -11.486  22.729  1.00  9.23     0.005 C 
HETATM   45  C46 RAP A 108      16.087  -8.250  25.902  1.00 15.99     0.008 C 
HETATM   46  C47 RAP A 108      11.416  -6.526  24.236  1.00 14.60     0.029 C 
HETATM   47  C48 RAP A 108      12.528  -7.978  28.222  1.00  9.37     0.013 C 
ENDROOT
BRANCH  41  48
HETATM   48  C35 RAP A 108       8.971  -2.902  26.887  1.00  9.58     0.028 C 
HETATM   49  C49 RAP A 108       7.484  -2.919  27.095  1.00  8.29     0.003 C 
BRANCH  48  50
HETATM   50  C36 RAP A 108       9.309  -3.152  25.419  1.00 10.31     0.003 C 
BRANCH  50  51
HETATM   51  C37 RAP A 108      10.691  -2.711  24.932  1.00 22.90     0.003 C 
HETATM   52  C38 RAP A 108      10.752  -2.769  23.401  1.00 14.17     0.032 C 
HETATM   53  C39 RAP A 108      12.142  -2.453  22.846  1.00 34.20     0.142 C 
HETATM   54  C40 RAP A 108      12.649  -1.084  23.418  1.00 38.24     0.138 C 
HETATM   55  C41 RAP A 108      12.561  -0.997  24.955  1.00 16.32     0.032 C 
HETATM   56  C42 RAP A 108      11.161  -1.348  25.439  1.00 14.05     0.003 C 
BRANCH  53  57
HETATM   57  O12 RAP A 108      12.008  -2.382  21.450  1.00 30.82    -0.352 OA
HETATM   58  C52 RAP A 108      12.198  -3.559  20.743  1.00 28.14     0.174 C 
ENDBRANCH  53  57
BRANCH  54  59
HETATM   59  O13 RAP A 108      14.003  -0.883  23.016  1.00 28.84    -0.382 OA
HETATM   60  HO3 RAP A 108      14.374  -0.128  23.491  1.00 13.32     0.210 HD
ENDBRANCH  54  59
ENDBRANCH  50  51
ENDBRANCH  48  50
ENDBRANCH  41  48
BRANCH  35  61
HETATM   61  O10 RAP A 108      14.481  -4.531  25.266  1.00 12.16    -0.378 OA
HETATM   62  HO1 RAP A 108      14.973  -5.190  25.778  1.00 13.32     0.211 HD
ENDBRANCH  35  61
BRANCH  16  63
HETATM   63  O6  RAP A 108       3.549  -6.499  30.410  1.00 14.16    -0.358 OA
HETATM   64  HO6 RAP A 108       3.574  -6.760  31.335  1.00 13.32     0.213 HD
ENDBRANCH  16  63
BRANCH  34  65
HETATM   65  O9  RAP A 108      14.955  -5.054  22.393  1.00 23.09    -0.344 OA
HETATM   66  C51 RAP A 108      15.194  -5.558  21.126  1.00 19.04     0.175 C 
ENDBRANCH  34  65
BRANCH  23  67
HETATM   67  O7  RAP A 108       6.244 -10.382  27.985  1.00 20.17    -0.350 OA
HETATM   68  C50 RAP A 108       5.483 -10.912  26.947  1.00 28.36     0.175 C 
ENDBRANCH  23  67
TORSDOF 9
ENDMDL
MODEL 6
REMARK VINA RESULT:    -5.646      3.162      6.017
REMARK INTER + INTRA:         -10.478
REMARK INTER:                  -8.000
REMARK INTRA:                  -2.478
REMARK UNBOUND:                -2.357
REMARK  9 active torsions:
REMARK  status: ('A' for Active; 'I' for Inactive)
REMARK    1  A    between atoms: O6_12  and  C10_19 
REMARK    2  A    between atoms: O7_14  and  C16_29 
REMARK    3  A    between atoms: O9_18  and  C27_40 
REMARK    4  A    between atoms: O10_20  and  C28_41 
REMARK    5  A    between atoms: O12_24  and  C39_52 
REMARK    6  A    between atoms: O13_26  and  C40_53 
REMARK    7  A    between atoms: C34_47  and  C35_48 
REMARK    8  A    between atoms: C35_48  and  C36_49 
REMARK    9  A    between atoms: C36_49  and  C37_50 
ROOT
HETATM    1  C1  RAP A 108      14.399  -5.398  28.563  1.00  5.98     0.292 C 
HETATM    2  O1  RAP A 108      13.364  -4.651  27.938  1.00  9.08    -0.302 OA
HETATM    3  C2  RAP A 108      15.764  -4.787  28.882  1.00  6.42     0.171 C 
HETATM    4  O2  RAP A 108      14.184  -6.580  28.822  1.00 14.08    -0.262 OA
HETATM    5  C3  RAP A 108      16.231  -5.184  30.275  1.00  5.50     0.033 C 
HETATM    6  O3  RAP A 108      16.926  -3.471  26.858  1.00 10.38    -0.264 OA
HETATM    7  C4  RAP A 108      15.511  -4.445  31.394  1.00  4.49     0.004 C 
HETATM    8  O4  RAP A 108      17.466  -0.749  28.060  1.00 10.60    -0.281 OA
HETATM    9  C5  RAP A 108      15.660  -2.954  31.148  1.00  4.19     0.024 C 
HETATM   10  O5  RAP A 108      14.345  -0.424  27.662  1.00 10.76    -0.332 OA
HETATM   11  C6  RAP A 108      15.100  -2.575  29.812  1.00  3.25     0.105 C 
HETATM   12  N7  RAP A 108      15.842  -3.326  28.785  1.00  8.46    -0.307 N 
HETATM   13  C8  RAP A 108      16.405  -2.744  27.715  1.00 10.06     0.297 C 
HETATM   14  O8  RAP A 108       4.769  -7.686  30.717  1.00 18.31    -0.293 OA
HETATM   15  C9  RAP A 108      16.501  -1.343  27.563  1.00 11.13     0.279 C 
HETATM   16  C10 RAP A 108      15.449  -0.524  26.793  1.00 16.59     0.246 C 
HETATM   17  C11 RAP A 108      14.987  -1.206  25.441  1.00 10.40     0.059 C 
HETATM   18  O11 RAP A 108      11.749  -4.319  30.402  1.00  9.49    -0.296 OA
HETATM   19  C12 RAP A 108      13.724  -0.520  24.871  1.00 12.17     0.008 C 
HETATM   20  C13 RAP A 108      12.663  -0.376  25.953  1.00 12.80     0.030 C 
HETATM   21  C14 RAP A 108      13.194   0.223  27.251  1.00 10.37     0.121 C 
HETATM   22  C15 RAP A 108      12.195  -0.011  28.370  1.00  5.94     0.064 C 
HETATM   23  C16 RAP A 108      10.891   0.774  28.297  1.00  9.79     0.136 C 
HETATM   24  C17 RAP A 108       9.971   0.422  29.447  1.00 15.52    -0.017 C 
HETATM   25  C18 RAP A 108       8.833  -0.204  29.177  1.00 14.38    -0.006 C 
HETATM   26  C19 RAP A 108       7.854  -0.635  30.185  1.00  9.73    -0.001 C 
HETATM   27  C20 RAP A 108       6.726  -1.206  29.785  1.00 10.26    -0.000 C 
HETATM   28  C21 RAP A 108       5.757  -1.748  30.756  1.00 11.40    -0.005 C 
HETATM   29  C22 RAP A 108       4.737  -2.494  30.377  1.00 17.77    -0.026 C 
HETATM   30  C23 RAP A 108       3.776  -3.166  31.333  1.00 15.64     0.022 C 
HETATM   31  C24 RAP A 108       3.804  -4.650  31.007  1.00 14.68     0.012 C 
HETATM   32  C25 RAP A 108       5.161  -5.328  30.973  1.00 11.87     0.061 C 
HETATM   33  C26 RAP A 108       5.096  -6.629  30.184  1.00 11.65     0.180 C 
HETATM   34  C27 RAP A 108       5.469  -6.554  28.707  1.00  8.13     0.203 C 
HETATM   35  C28 RAP A 108       7.007  -6.638  28.447  1.00 10.80     0.163 C 
HETATM   36  C29 RAP A 108       7.740  -5.297  28.642  1.00  9.60    -0.019 C 
HETATM   37  C30 RAP A 108       8.581  -5.070  29.650  1.00  8.55    -0.025 C 
HETATM   38  C31 RAP A 108       9.418  -3.821  29.965  1.00  8.43     0.079 C 
HETATM   39  C32 RAP A 108      10.874  -4.068  29.568  1.00 10.69     0.157 C 
HETATM   40  C33 RAP A 108      11.165  -4.037  28.072  1.00  6.51     0.095 C 
HETATM   41  C34 RAP A 108      12.104  -5.146  27.645  1.00  9.62     0.132 C 
HETATM   42  C43 RAP A 108      16.089  -1.324  24.346  1.00 11.25     0.005 C 
HETATM   43  C44 RAP A 108      10.447   0.862  30.843  1.00 14.40     0.029 C 
HETATM   44  C45 RAP A 108       2.369  -2.607  31.177  1.00  9.23     0.005 C 
HETATM   45  C46 RAP A 108       5.707  -5.571  32.382  1.00 15.99     0.008 C 
HETATM   46  C47 RAP A 108       7.412  -4.249  27.595  1.00 14.60     0.029 C 
HETATM   47  C48 RAP A 108       9.333  -3.535  31.473  1.00  9.37     0.013 C 
ENDROOT
BRANCH  41  48
HETATM   48  C35 RAP A 108      12.145  -5.544  26.156  1.00  9.58     0.028 C 
HETATM   49  C49 RAP A 108      12.447  -7.002  25.965  1.00  8.29     0.003 C 
BRANCH  48  50
HETATM   50  C36 RAP A 108      13.124  -4.686  25.358  1.00 10.31     0.003 C 
BRANCH  50  51
HETATM   51  C37 RAP A 108      12.534  -3.721  24.326  1.00 22.90     0.003 C 
HETATM   52  C38 RAP A 108      13.221  -3.916  22.970  1.00 14.17     0.032 C 
HETATM   53  C39 RAP A 108      12.764  -2.905  21.917  1.00 34.20     0.142 C 
HETATM   54  C40 RAP A 108      11.200  -2.917  21.807  1.00 38.24     0.138 C 
HETATM   55  C41 RAP A 108      10.493  -2.758  23.168  1.00 16.32     0.032 C 
HETATM   56  C42 RAP A 108      11.014  -3.775  24.173  1.00 14.05     0.003 C 
BRANCH  53  57
HETATM   57  O12 RAP A 108      13.344  -3.304  20.702  1.00 30.82    -0.352 OA
HETATM   58  C52 RAP A 108      13.315  -4.660  20.412  1.00 28.14     0.174 C 
ENDBRANCH  53  57
BRANCH  54  59
HETATM   59  O13 RAP A 108      10.785  -1.864  20.940  1.00 28.84    -0.382 OA
HETATM   60  HO3 RAP A 108      10.908  -1.013  21.380  1.00 13.32     0.210 HD
ENDBRANCH  54  59
ENDBRANCH  50  51
ENDBRANCH  48  50
ENDBRANCH  41  48
BRANCH  35  61
HETATM   61  O10 RAP A 108       7.543  -7.620  29.343  1.00 12.16    -0.378 OA
HETATM   62  HO1 RAP A 108       8.304  -8.078  28.955  1.00 13.32     0.211 HD
ENDBRANCH  35  61
BRANCH  16  63
HETATM   63  O6  RAP A 108      15.995   0.766  26.500  1.00 14.16    -0.358 OA
HETATM   64  HO6 RAP A 108      16.595   0.673  25.754  1.00 13.32     0.213 HD
ENDBRANCH  16  63
BRANCH  34  65
HETATM   65  O9  RAP A 108       4.887  -7.642  28.041  1.00 23.09    -0.344 OA
HETATM   66  C51 RAP A 108       5.021  -7.642  26.663  1.00 19.04     0.175 C 
ENDBRANCH  34  65
BRANCH  23  67
HETATM   67  O7  RAP A 108      11.207   2.130  28.355  1.00 20.17    -0.350 OA
HETATM   68  C50 RAP A 108      10.143   3.016  28.214  1.00 28.36     0.175 C 
ENDBRANCH  23  67
TORSDOF 9
ENDMDL
MODEL 7
REMARK VINA RESULT:    -5.604      4.317      9.566
REMARK INTER + INTRA:         -10.417
REMARK INTER:                  -7.771
REMARK INTRA:                  -2.646
REMARK UNBOUND:                -2.357
REMARK  9 active torsions:
REMARK  status: ('A' for Active; 'I' for Inactive)
REMARK    1  A    between atoms: O6_12  and  C10_19 
REMARK    2  A    between atoms: O7_14  and  C16_29 
REMARK    3  A    between atoms: O9_18  and  C27_40 
REMARK    4  A    between atoms: O10_20  and  C28_41 
REMARK    5  A    between atoms: O12_24  and  C39_52 
REMARK    6  A    between atoms: O13_26  and  C40_53 
REMARK    7  A    between atoms: C34_47  and  C35_48 
REMARK    8  A    between atoms: C35_48  and  C36_49 
REMARK    9  A    between atoms: C36_49  and  C37_50 
ROOT
HETATM    1  C1  RAP A 108      11.442  -2.768  23.484  1.00  5.98     0.292 C 
HETATM    2  O1  RAP A 108      11.727  -2.941  24.865  1.00  9.08    -0.302 OA
HETATM    3  C2  RAP A 108      12.520  -2.367  22.476  1.00  6.42     0.171 C 
HETATM    4  O2  RAP A 108      10.282  -2.920  23.109  1.00 14.08    -0.262 OA
HETATM    5  C3  RAP A 108      12.411  -3.190  21.201  1.00  5.50     0.033 C 
HETATM    6  O3  RAP A 108      14.023  -0.266  23.187  1.00 10.38    -0.264 OA
HETATM    7  C4  RAP A 108      12.920  -4.617  21.349  1.00  4.49     0.004 C 
HETATM    8  O4  RAP A 108      16.833  -1.365  22.993  1.00 10.60    -0.281 OA
HETATM    9  C5  RAP A 108      14.345  -4.559  21.869  1.00  4.19     0.024 C 
HETATM   10  O5  RAP A 108      15.997  -2.813  25.677  1.00 10.76    -0.332 OA
HETATM   11  C6  RAP A 108      14.407  -3.831  23.176  1.00  3.25     0.105 C 
HETATM   12  N7  RAP A 108      13.903  -2.466  22.954  1.00  8.46    -0.307 N 
HETATM   13  C8  RAP A 108      14.572  -1.366  23.331  1.00 10.06     0.297 C 
HETATM   14  O8  RAP A 108       6.024  -9.510  28.757  1.00 18.31    -0.293 OA
HETATM   15  C9  RAP A 108      15.902  -1.400  23.807  1.00 11.13     0.279 C 
HETATM   16  C10 RAP A 108      16.238  -1.476  25.307  1.00 16.59     0.246 C 
HETATM   17  C11 RAP A 108      15.346  -0.520  26.200  1.00 10.40     0.059 C 
HETATM   18  O11 RAP A 108      11.628  -5.903  24.789  1.00  9.49    -0.296 OA
HETATM   19  C12 RAP A 108      15.496  -0.855  27.702  1.00 12.17     0.008 C 
HETATM   20  C13 RAP A 108      15.326  -2.350  27.933  1.00 12.80     0.030 C 
HETATM   21  C14 RAP A 108      16.161  -3.211  26.991  1.00 10.37     0.121 C 
HETATM   22  C15 RAP A 108      15.663  -4.645  27.030  1.00  5.94     0.064 C 
HETATM   23  C16 RAP A 108      15.925  -5.426  28.312  1.00  9.79     0.136 C 
HETATM   24  C17 RAP A 108      15.347  -6.823  28.234  1.00 15.52    -0.017 C 
HETATM   25  C18 RAP A 108      14.341  -7.136  29.039  1.00 14.38    -0.006 C 
HETATM   26  C19 RAP A 108      13.658  -8.438  29.060  1.00  9.73    -0.001 C 
HETATM   27  C20 RAP A 108      12.697  -8.647  29.949  1.00 10.26    -0.000 C 
HETATM   28  C21 RAP A 108      11.913  -9.896  29.948  1.00 11.40    -0.005 C 
HETATM   29  C22 RAP A 108      10.828 -10.036  30.686  1.00 17.77    -0.026 C 
HETATM   30  C23 RAP A 108       9.924 -11.249  30.645  1.00 15.64     0.022 C 
HETATM   31  C24 RAP A 108       8.530 -10.741  30.320  1.00 14.68     0.012 C 
HETATM   32  C25 RAP A 108       8.379  -9.860  29.094  1.00 11.87     0.061 C 
HETATM   33  C26 RAP A 108       7.090  -9.053  29.163  1.00 11.65     0.180 C 
HETATM   34  C27 RAP A 108       7.192  -7.648  29.748  1.00  8.13     0.203 C 
HETATM   35  C28 RAP A 108       7.644  -6.571  28.709  1.00 10.80     0.163 C 
HETATM   36  C29 RAP A 108       9.168  -6.529  28.488  1.00  9.60    -0.019 C 
HETATM   37  C30 RAP A 108       9.749  -6.925  27.356  1.00  8.55    -0.025 C 
HETATM   38  C31 RAP A 108      11.232  -6.909  26.957  1.00  8.43     0.079 C 
HETATM   39  C32 RAP A 108      11.494  -5.742  26.006  1.00 10.69     0.157 C 
HETATM   40  C33 RAP A 108      11.524  -4.360  26.648  1.00  6.51     0.095 C 
HETATM   41  C34 RAP A 108      10.797  -3.322  25.818  1.00  9.62     0.132 C 
HETATM   42  C43 RAP A 108      15.554   1.004  25.955  1.00 11.25     0.005 C 
HETATM   43  C44 RAP A 108      16.023  -7.770  27.227  1.00 14.40     0.029 C 
HETATM   44  C45 RAP A 108       9.933 -11.984  31.977  1.00  9.23     0.005 C 
HETATM   45  C46 RAP A 108       8.443 -10.677  27.800  1.00 15.99     0.008 C 
HETATM   46  C47 RAP A 108       9.957  -6.012  29.676  1.00 14.60     0.029 C 
HETATM   47  C48 RAP A 108      11.571  -8.235  26.258  1.00  9.37     0.013 C 
ENDROOT
BRANCH  41  48
HETATM   48  C35 RAP A 108      10.339  -2.020  26.504  1.00  9.58     0.028 C 
HETATM   49  C49 RAP A 108      11.322  -0.901  26.313  1.00  8.29     0.003 C 
BRANCH  48  50
HETATM   50  C36 RAP A 108      10.044  -2.225  27.989  1.00 10.31     0.003 C 
BRANCH  50  51
HETATM   51  C37 RAP A 108       8.715  -2.890  28.355  1.00 22.90     0.003 C 
HETATM   52  C38 RAP A 108       8.376  -2.612  29.824  1.00 14.17     0.032 C 
HETATM   53  C39 RAP A 108       7.117  -3.343  30.295  1.00 34.20     0.142 C 
HETATM   54  C40 RAP A 108       5.922  -3.029  29.331  1.00 38.24     0.138 C 
HETATM   55  C41 RAP A 108       6.260  -3.270  27.846  1.00 16.32     0.032 C 
HETATM   56  C42 RAP A 108       7.534  -2.536  27.452  1.00 14.05     0.003 C 
BRANCH  53  57
HETATM   57  O12 RAP A 108       6.841  -2.870  31.589  1.00 30.82    -0.352 OA
HETATM   58  C52 RAP A 108       6.829  -1.494  31.760  1.00 28.14     0.174 C 
ENDBRANCH  53  57
BRANCH  54  59
HETATM   59  O13 RAP A 108       4.805  -3.838  29.692  1.00 28.84    -0.382 OA
HETATM   60  HO3 RAP A 108       4.263  -3.373  30.342  1.00 13.32     0.210 HD
ENDBRANCH  54  59
ENDBRANCH  50  51
ENDBRANCH  48  50
ENDBRANCH  41  48
BRANCH  35  61
HETATM   61  O10 RAP A 108       6.981  -6.860  27.471  1.00 12.16    -0.378 OA
HETATM   62  HO1 RAP A 108       6.994  -7.808  27.274  1.00 13.32     0.211 HD
ENDBRANCH  35  61
BRANCH  16  63
HETATM   63  O6  RAP A 108      17.614  -1.129  25.489  1.00 14.16    -0.358 OA
HETATM   64  HO6 RAP A 108      18.146  -1.902  25.279  1.00 13.32     0.213 HD
ENDBRANCH  16  63
BRANCH  34  65
HETATM   65  O9  RAP A 108       5.925  -7.259  30.206  1.00 23.09    -0.344 OA
HETATM   66  C51 RAP A 108       5.893  -6.699  31.472  1.00 19.04     0.175 C 
ENDBRANCH  34  65
BRANCH  23  67
HETATM   67  O7  RAP A 108      17.305  -5.503  28.489  1.00 20.17    -0.350 OA
HETATM   68  C50 RAP A 108      17.774  -5.280  29.780  1.00 28.36     0.175 C 
ENDBRANCH  23  67
TORSDOF 9
ENDMDL
MODEL 8
REMARK VINA RESULT:    -5.575      4.664      9.381
REMARK INTER + INTRA:         -10.376
REMARK INTER:                  -8.208
REMARK INTRA:                  -2.168
REMARK UNBOUND:                -2.357
REMARK  9 active torsions:
REMARK  status: ('A' for Active; 'I' for Inactive)
REMARK    1  A    between atoms: O6_12  and  C10_19 
REMARK    2  A    between atoms: O7_14  and  C16_29 
REMARK    3  A    between atoms: O9_18  and  C27_40 
REMARK    4  A    between atoms: O10_20  and  C28_41 
REMARK    5  A    between atoms: O12_24  and  C39_52 
REMARK    6  A    between atoms: O13_26  and  C40_53 
REMARK    7  A    between atoms: C34_47  and  C35_48 
REMARK    8  A    between atoms: C35_48  and  C36_49 
REMARK    9  A    between atoms: C36_49  and  C37_50 
ROOT
HETATM    1  C1  RAP A 108      13.456  -3.462  23.154  1.00  5.98     0.292 C 
HETATM    2  O1  RAP A 108      14.320  -3.635  24.269  1.00  9.08    -0.302 OA
HETATM    3  C2  RAP A 108      11.940  -3.623  23.269  1.00  6.42     0.171 C 
HETATM    4  O2  RAP A 108      13.962  -3.205  22.064  1.00 14.08    -0.262 OA
HETATM    5  C3  RAP A 108      11.213  -2.514  22.524  1.00  5.50     0.033 C 
HETATM    6  O3  RAP A 108      11.119  -5.857  24.498  1.00 10.38    -0.264 OA
HETATM    7  C4  RAP A 108      11.240  -1.174  23.245  1.00  4.49     0.004 C 
HETATM    8  O4  RAP A 108       9.335  -4.789  26.694  1.00 10.60    -0.281 OA
HETATM    9  C5  RAP A 108      10.684  -1.378  24.643  1.00  4.19     0.024 C 
HETATM   10  O5  RAP A 108      12.114  -4.024  27.995  1.00 10.76    -0.332 OA
HETATM   11  C6  RAP A 108      11.481  -2.403  25.389  1.00  3.25     0.105 C 
HETATM   12  N7  RAP A 108      11.409  -3.665  24.635  1.00  8.46    -0.307 N 
HETATM   13  C8  RAP A 108      11.058  -4.834  25.192  1.00 10.06     0.297 C 
HETATM   14  O8  RAP A 108      22.055   1.880  23.512  1.00 18.31    -0.293 OA
HETATM   15  C9  RAP A 108      10.549  -4.938  26.506  1.00 11.13     0.279 C 
HETATM   16  C10 RAP A 108      11.450  -5.235  27.718  1.00 16.59     0.246 C 
HETATM   17  C11 RAP A 108      12.525  -6.365  27.441  1.00 10.40     0.059 C 
HETATM   18  O11 RAP A 108      14.845  -0.742  24.650  1.00  9.49    -0.296 OA
HETATM   19  C12 RAP A 108      13.594  -6.407  28.557  1.00 12.17     0.008 C 
HETATM   20  C13 RAP A 108      14.136  -5.011  28.828  1.00 12.80     0.030 C 
HETATM   21  C14 RAP A 108      13.046  -3.960  29.015  1.00 10.37     0.121 C 
HETATM   22  C15 RAP A 108      13.649  -2.571  28.906  1.00  5.94     0.064 C 
HETATM   23  C16 RAP A 108      14.561  -2.130  30.044  1.00  9.79     0.136 C 
HETATM   24  C17 RAP A 108      15.124  -0.746  29.795  1.00 15.52    -0.017 C 
HETATM   25  C18 RAP A 108      16.429  -0.622  29.592  1.00 14.38    -0.006 C 
HETATM   26  C19 RAP A 108      17.116   0.646  29.309  1.00  9.73    -0.001 C 
HETATM   27  C20 RAP A 108      18.435   0.648  29.175  1.00 10.26    -0.000 C 
HETATM   28  C21 RAP A 108      19.163   1.872  28.793  1.00 11.40    -0.005 C 
HETATM   29  C22 RAP A 108      20.439   1.846  28.458  1.00 17.77    -0.026 C 
HETATM   30  C23 RAP A 108      21.209   3.046  27.953  1.00 15.64     0.022 C 
HETATM   31  C24 RAP A 108      21.790   2.655  26.606  1.00 14.68     0.012 C 
HETATM   32  C25 RAP A 108      20.830   2.101  25.569  1.00 11.87     0.061 C 
HETATM   33  C26 RAP A 108      21.580   1.322  24.498  1.00 11.65     0.180 C 
HETATM   34  C27 RAP A 108      21.700  -0.185  24.705  1.00  8.13     0.203 C 
HETATM   35  C28 RAP A 108      20.452  -0.984  24.210  1.00 10.80     0.163 C 
HETATM   36  C29 RAP A 108      19.287  -0.995  25.220  1.00  9.60    -0.019 C 
HETATM   37  C30 RAP A 108      18.142  -0.345  25.015  1.00  8.55    -0.025 C 
HETATM   38  C31 RAP A 108      16.879  -0.287  25.885  1.00  8.43     0.079 C 
HETATM   39  C32 RAP A 108      15.802  -1.192  25.287  1.00 10.69     0.157 C 
HETATM   40  C33 RAP A 108      16.015  -2.689  25.479  1.00  6.51     0.095 C 
HETATM   41  C34 RAP A 108      15.696  -3.482  24.228  1.00  9.62     0.132 C 
HETATM   42  C43 RAP A 108      11.942  -7.786  27.185  1.00 11.25     0.005 C 
HETATM   43  C44 RAP A 108      14.105   0.407  29.834  1.00 14.40     0.029 C 
HETATM   44  C45 RAP A 108      22.315   3.435  28.924  1.00  9.23     0.005 C 
HETATM   45  C46 RAP A 108      19.976   3.206  24.943  1.00 15.99     0.008 C 
HETATM   46  C47 RAP A 108      19.561  -1.798  26.478  1.00 14.60     0.029 C 
HETATM   47  C48 RAP A 108      16.372   1.164  25.928  1.00  9.37     0.013 C 
ENDROOT
BRANCH  41  48
HETATM   48  C35 RAP A 108      16.274  -4.904  24.092  1.00  9.58     0.028 C 
HETATM   49  C49 RAP A 108      16.797  -5.433  25.396  1.00  8.29     0.003 C 
BRANCH  48  50
HETATM   50  C36 RAP A 108      17.350  -4.987  23.011  1.00 10.31     0.003 C 
BRANCH  50  51
HETATM   51  C37 RAP A 108      16.900  -5.380  21.601  1.00 22.90     0.003 C 
HETATM   52  C38 RAP A 108      15.608  -6.202  21.672  1.00 14.17     0.032 C 
HETATM   53  C39 RAP A 108      15.161  -6.731  20.308  1.00 34.20     0.142 C 
HETATM   54  C40 RAP A 108      15.069  -5.551  19.280  1.00 38.24     0.138 C 
HETATM   55  C41 RAP A 108      16.349  -4.693  19.223  1.00 16.32     0.032 C 
HETATM   56  C42 RAP A 108      16.751  -4.223  20.614  1.00 14.05     0.003 C 
BRANCH  53  57
HETATM   57  O12 RAP A 108      13.897  -7.313  20.500  1.00 30.82    -0.352 OA
HETATM   58  C52 RAP A 108      12.923  -6.513  21.076  1.00 28.14     0.174 C 
ENDBRANCH  53  57
BRANCH  54  59
HETATM   59  O13 RAP A 108      14.805  -6.081  17.982  1.00 28.84    -0.382 OA
HETATM   60  HO3 RAP A 108      13.893  -5.887  17.731  1.00 13.32     0.210 HD
ENDBRANCH  54  59
ENDBRANCH  50  51
ENDBRANCH  48  50
ENDBRANCH  41  48
BRANCH  35  61
HETATM   61  O10 RAP A 108      20.021  -0.392  22.978  1.00 12.16    -0.378 OA
HETATM   62  HO1 RAP A 108      19.845   0.555  23.080  1.00 13.32     0.211 HD
ENDBRANCH  35  61
BRANCH  16  63
HETATM   63  O6  RAP A 108      10.627  -5.637  28.817  1.00 14.16    -0.358 OA
HETATM   64  HO6 RAP A 108       9.967  -6.252  28.485  1.00 13.32     0.213 HD
ENDBRANCH  16  63
BRANCH  34  65
HETATM   65  O9  RAP A 108      22.797  -0.653  23.966  1.00 23.09    -0.344 OA
HETATM   66  C51 RAP A 108      23.031  -2.016  24.043  1.00 19.04     0.175 C 
ENDBRANCH  34  65
BRANCH  23  67
HETATM   67  O7  RAP A 108      13.805  -2.119  31.215  1.00 20.17    -0.350 OA
HETATM   68  C50 RAP A 108      14.415  -2.654  32.346  1.00 28.36     0.175 C 
ENDBRANCH  23  67
TORSDOF 9
ENDMDL
MODEL 9
REMARK VINA RESULT:    -5.451      2.784      8.658
REMARK INTER + INTRA:         -10.198
REMARK INTER:                  -7.559
REMARK INTRA:                  -2.639
REMARK UNBOUND:                -2.357
REMARK  9 active torsions:
REMARK  status: ('A' for Active; 'I' for Inactive)
REMARK    1  A    between atoms: O6_12  and  C10_19 
REMARK    2  A    between atoms: O7_14  and  C16_29 
REMARK    3  A    between atoms: O9_18  and  C27_40 
REMARK    4  A    between atoms: O10_20  and  C28_41 
REMARK    5  A    between atoms: O12_24  and  C39_52 
REMARK    6  A    between atoms: O13_26  and  C40_53 
REMARK    7  A    between atoms: C34_47  and  C35_48 
REMARK    8  A    between atoms: C35_48  and  C36_49 
REMARK    9  A    between atoms: C36_49  and  C37_50 
ROOT
HETATM    1  C1  RAP A 108       8.711   1.261  27.857  1.00  5.98     0.292 C 
HETATM    2  O1  RAP A 108       9.469   0.102  28.175  1.00  9.08    -0.302 OA
HETATM    3  C2  RAP A 108       7.791   1.934  28.874  1.00  6.42     0.171 C 
HETATM    4  O2  RAP A 108       8.787   1.706  26.713  1.00 14.08    -0.262 OA
HETATM    5  C3  RAP A 108       7.944   3.448  28.836  1.00  5.50     0.033 C 
HETATM    6  O3  RAP A 108       6.113   0.289  30.161  1.00 10.38    -0.264 OA
HETATM    7  C4  RAP A 108       9.223   3.949  29.490  1.00  4.49     0.004 C 
HETATM    8  O4  RAP A 108       6.722   0.861  33.068  1.00 10.60    -0.281 OA
HETATM    9  C5  RAP A 108       9.272   3.409  30.908  1.00  4.19     0.024 C 
HETATM   10  O5  RAP A 108       9.312  -0.833  32.419  1.00 10.76    -0.332 OA
HETATM   11  C6  RAP A 108       9.221   1.913  30.912  1.00  3.25     0.105 C 
HETATM   12  N7  RAP A 108       7.962   1.504  30.266  1.00  8.46    -0.307 N 
HETATM   13  C8  RAP A 108       7.097   0.643  30.823  1.00 10.06     0.297 C 
HETATM   14  O8  RAP A 108      17.611  -0.151  23.230  1.00 18.31    -0.293 OA
HETATM   15  C9  RAP A 108       7.216   0.188  32.155  1.00 11.13     0.279 C 
HETATM   16  C10 RAP A 108       7.937  -1.124  32.516  1.00 16.59     0.246 C 
HETATM   17  C11 RAP A 108       7.589  -2.322  31.541  1.00 10.40     0.059 C 
HETATM   18  O11 RAP A 108      12.061   1.526  28.382  1.00  9.49    -0.296 OA
HETATM   19  C12 RAP A 108       8.558  -3.509  31.744  1.00 12.17     0.008 C 
HETATM   20  C13 RAP A 108      10.002  -3.026  31.732  1.00 12.80     0.030 C 
HETATM   21  C14 RAP A 108      10.249  -1.826  32.640  1.00 10.37     0.121 C 
HETATM   22  C15 RAP A 108      11.582  -1.187  32.293  1.00  5.94     0.064 C 
HETATM   23  C16 RAP A 108      12.834  -1.980  32.650  1.00  9.79     0.136 C 
HETATM   24  C17 RAP A 108      14.089  -1.252  32.219  1.00 15.52    -0.017 C 
HETATM   25  C18 RAP A 108      14.833  -1.788  31.260  1.00 14.38    -0.006 C 
HETATM   26  C19 RAP A 108      16.059  -1.187  30.715  1.00  9.73    -0.001 C 
HETATM   27  C20 RAP A 108      16.745  -1.847  29.792  1.00 10.26    -0.000 C 
HETATM   28  C21 RAP A 108      17.924  -1.247  29.142  1.00 11.40    -0.005 C 
HETATM   29  C22 RAP A 108      18.492  -1.800  28.086  1.00 17.77    -0.026 C 
HETATM   30  C23 RAP A 108      19.632  -1.177  27.312  1.00 15.64     0.022 C 
HETATM   31  C24 RAP A 108      19.171  -1.069  25.868  1.00 14.68     0.012 C 
HETATM   32  C25 RAP A 108      17.846  -0.376  25.612  1.00 11.87     0.061 C 
HETATM   33  C26 RAP A 108      17.289  -0.759  24.248  1.00 11.65     0.180 C 
HETATM   34  C27 RAP A 108      16.306  -1.925  24.212  1.00  8.13     0.203 C 
HETATM   35  C28 RAP A 108      14.835  -1.510  24.537  1.00 10.80     0.163 C 
HETATM   36  C29 RAP A 108      14.548  -1.388  26.046  1.00  9.60    -0.019 C 
HETATM   37  C30 RAP A 108      14.323  -0.221  26.650  1.00  8.55    -0.025 C 
HETATM   38  C31 RAP A 108      13.982   0.072  28.118  1.00  8.43     0.079 C 
HETATM   39  C32 RAP A 108      12.489   0.375  28.247  1.00 10.69     0.157 C 
HETATM   40  C33 RAP A 108      11.559  -0.828  28.142  1.00  6.51     0.095 C 
HETATM   41  C34 RAP A 108      10.333  -0.537  27.301  1.00  9.62     0.132 C 
HETATM   42  C43 RAP A 108       6.109  -2.807  31.588  1.00 11.25     0.005 C 
HETATM   43  C44 RAP A 108      14.399   0.052  32.975  1.00 14.40     0.029 C 
HETATM   44  C45 RAP A 108      20.891  -2.026  27.413  1.00  9.23     0.005 C 
HETATM   45  C46 RAP A 108      17.969   1.144  25.744  1.00 15.99     0.008 C 
HETATM   46  C47 RAP A 108      14.558  -2.709  26.791  1.00 14.60     0.029 C 
HETATM   47  C48 RAP A 108      14.800   1.287  28.584  1.00  9.37     0.013 C 
ENDROOT
BRANCH  41  48
HETATM   48  C35 RAP A 108       9.541  -1.726  26.720  1.00  9.58     0.028 C 
HETATM   49  C49 RAP A 108       8.476  -2.213  27.660  1.00  8.29     0.003 C 
BRANCH  48  50
HETATM   50  C36 RAP A 108      10.454  -2.877  26.304  1.00 10.31     0.003 C 
BRANCH  50  51
HETATM   51  C37 RAP A 108      11.277  -2.694  25.026  1.00 22.90     0.003 C 
HETATM   52  C38 RAP A 108      11.618  -4.060  24.420  1.00 14.17     0.032 C 
HETATM   53  C39 RAP A 108      12.539  -3.960  23.203  1.00 34.20     0.142 C 
HETATM   54  C40 RAP A 108      11.931  -2.970  22.150  1.00 38.24     0.138 C 
HETATM   55  C41 RAP A 108      11.549  -1.603  22.752  1.00 16.32     0.032 C 
HETATM   56  C42 RAP A 108      10.656  -1.777  23.972  1.00 14.05     0.003 C 
BRANCH  53  57
HETATM   57  O12 RAP A 108      12.630  -5.254  22.663  1.00 30.82    -0.352 OA
HETATM   58  C52 RAP A 108      12.983  -6.271  23.536  1.00 28.14     0.174 C 
ENDBRANCH  53  57
BRANCH  54  59
HETATM   59  O13 RAP A 108      12.873  -2.769  21.099  1.00 28.84    -0.382 OA
HETATM   60  HO3 RAP A 108      13.208  -1.864  21.130  1.00 13.32     0.210 HD
ENDBRANCH  54  59
ENDBRANCH  50  51
ENDBRANCH  48  50
ENDBRANCH  41  48
BRANCH  35  61
HETATM   61  O10 RAP A 108      14.588  -0.253  23.892  1.00 12.16    -0.378 OA
HETATM   62  HO1 RAP A 108      14.183  -0.375  23.020  1.00 13.32     0.211 HD
ENDBRANCH  35  61
BRANCH  16  63
HETATM   63  O6  RAP A 108       7.580  -1.493  33.851  1.00 14.16    -0.358 OA
HETATM   64  HO6 RAP A 108       8.127  -2.240  34.110  1.00 13.32     0.213 HD
ENDBRANCH  16  63
BRANCH  34  65
HETATM   65  O9  RAP A 108      16.296  -2.464  22.917  1.00 23.09    -0.344 OA
HETATM   66  C51 RAP A 108      16.168  -3.841  22.844  1.00 19.04     0.175 C 
ENDBRANCH  34  65
BRANCH  23  67
HETATM   67  O7  RAP A 108      12.849  -2.151  34.032  1.00 20.17    -0.350 OA
HETATM   68  C50 RAP A 108      13.274  -3.394  34.494  1.00 28.36     0.175 C 
ENDBRANCH  23  67
TORSDOF 9
ENDMDL
