MODEL 1
REMARK VINA RESULT:      -4.0      0.000      0.000
REMARK  13 active torsions:
REMARK  status: ('A' for Active; 'I' for Inactive)
REMARK    1  A    between atoms: O_1  and  P_2 
REMARK    2  A    between atoms: O_1  and  C_12 
REMARK    3  A    between atoms: P_2  and  O_4 
REMARK    4  A    between atoms: P_2  and  O_10 
REMARK    5  A    between atoms: O_4  and  C_5 
REMARK    6  A    between atoms: C_5  and  C_6 
REMARK    7  A    between atoms: C_6  and  N_7 
REMARK    8  A    between atoms: C_12  and  C_13 
REMARK    9  A    between atoms: C_13  and  O_14 
REMARK   10  A    between atoms: C_13  and  C_18 
REMARK   11  A    between atoms: O_14  and  C_15 
REMARK   12  A    between atoms: C_18  and  O_19 
REMARK   13  A    between atoms: O_19  and  C_20 
ROOT
HETATM    1  O   PEA A   1       1.354  -1.754   0.871  1.00  0.00    -0.275 OA
ENDROOT
BRANCH   1   2
HETATM    2  P   PEA A   1       2.177  -0.680  -0.021  1.00  0.00     0.395 P 
HETATM    3  O   PEA A   1       1.483  -0.253  -1.282  1.00  0.00    -0.631 OA
BRANCH   2   4
HETATM    4  O   PEA A   1       2.530   0.525   1.000  1.00  0.00    -0.276 OA
BRANCH   4   5
HETATM    5  C   PEA A   1       1.924   0.570   2.281  1.00  0.00     0.188 C 
BRANCH   5   6
HETATM    6  C   PEA A   1       1.134   1.863   2.402  1.00  0.00     0.274 C 
BRANCH   6   7
HETATM    7  N   PEA A   1      -0.083   1.798   1.607  1.00  0.00     0.097 N 
HETATM    8  H   PEA A   1      -0.772   1.215   2.080  1.00  0.00     0.314 HD
HETATM    9  H   PEA A   1      -0.493   2.728   1.539  1.00  0.00     0.314 HD
ENDBRANCH   6   7
ENDBRANCH   5   6
ENDBRANCH   4   5
ENDBRANCH   2   4
BRANCH   2  10
HETATM   10  O   PEA A   1       3.596  -1.422  -0.267  1.00  0.00    -0.307 OA
HETATM   11  H   PEA A   1       4.372  -1.143   0.262  1.00  0.00     0.222 HD
ENDBRANCH   2  10
ENDBRANCH   1   2
BRANCH   1  12
HETATM   12  C   PEA A   1       0.250  -2.418   0.278  1.00  0.00     0.186 C 
BRANCH  12  13
HETATM   13  C   PEA A   1       0.589  -3.886   0.050  1.00  0.00     0.184 C 
BRANCH  13  14
HETATM   14  O   PEA A   1       1.729  -4.222   0.844  1.00  0.00    -0.299 OA
BRANCH  14  15
HETATM   15  C   PEA A   1       1.528  -5.197   1.777  1.00  0.00     0.273 C 
HETATM   16  O   PEA A   1       0.646  -6.045   1.759  1.00  0.00    -0.264 OA
HETATM   17  C   PEA A   1       2.565  -5.085   2.853  1.00  0.00     0.106 C 
ENDBRANCH  14  15
ENDBRANCH  13  14
BRANCH  13  18
HETATM   18  C   PEA A   1       0.935  -4.158  -1.408  1.00  0.00     0.184 C 
BRANCH  18  19
HETATM   19  O   PEA A   1       2.320  -3.899  -1.611  1.00  0.00    -0.299 OA
BRANCH  19  20
HETATM   20  C   PEA A   1       2.665  -3.450  -2.856  1.00  0.00     0.273 C 
HETATM   21  O   PEA A   1       3.377  -2.488  -3.103  1.00  0.00    -0.264 OA
HETATM   22  C   PEA A   1       2.035  -4.321  -3.901  1.00  0.00     0.106 C 
ENDBRANCH  19  20
ENDBRANCH  18  19
ENDBRANCH  13  18
ENDBRANCH  12  13
ENDBRANCH   1  12
TORSDOF 13
ENDMDL
