MODEL 1
REMARK VINA RESULT:      -3.1      0.000      0.000
REMARK  13 active torsions:
REMARK  status: ('A' for Active; 'I' for Inactive)
REMARK    1  A    between atoms: O_1  and  P_2 
REMARK    2  A    between atoms: O_1  and  C_12 
REMARK    3  A    between atoms: P_2  and  O_4 
REMARK    4  A    between atoms: P_2  and  O_10 
REMARK    5  A    between atoms: O_4  and  C_5 
REMARK    6  A    between atoms: C_5  and  C_6 
REMARK    7  A    between atoms: C_6  and  N_7 
REMARK    8  A    between atoms: C_12  and  C_13 
REMARK    9  A    between atoms: C_13  and  O_14 
REMARK   10  A    between atoms: C_13  and  C_18 
REMARK   11  A    between atoms: O_14  and  C_15 
REMARK   12  A    between atoms: C_18  and  O_19 
REMARK   13  A    between atoms: O_19  and  C_20 
ROOT
HETATM    1  O   PEA A   1       7.735 -26.943   9.117  1.00  0.00    -0.275 OA
ENDROOT
BRANCH   1   2
HETATM    2  P   PEA A   1       7.393 -28.353   9.837  1.00  0.00     0.395 P 
HETATM    3  O   PEA A   1       7.020 -29.461   8.896  1.00  0.00    -0.631 OA
BRANCH   2   4
HETATM    4  O   PEA A   1       8.675 -28.664  10.774  1.00  0.00    -0.276 OA
BRANCH   4   5
HETATM    5  C   PEA A   1       8.499 -29.290  12.035  1.00  0.00     0.188 C 
BRANCH   5   6
HETATM    6  C   PEA A   1       8.844 -28.292  13.128  1.00  0.00     0.274 C 
BRANCH   6   7
HETATM    7  N   PEA A   1       7.648 -27.606  13.594  1.00  0.00     0.097 N 
HETATM    8  H   PEA A   1       7.053 -27.376  12.799  1.00  0.00     0.314 HD
HETATM    9  H   PEA A   1       7.106 -28.235  14.185  1.00  0.00     0.314 HD
ENDBRANCH   6   7
ENDBRANCH   5   6
ENDBRANCH   4   5
ENDBRANCH   2   4
BRANCH   2  10
HETATM   10  O   PEA A   1       6.223 -27.953  10.883  1.00  0.00    -0.307 OA
HETATM   11  H   PEA A   1       5.391 -28.471  10.882  1.00  0.00     0.222 HD
ENDBRANCH   2  10
ENDBRANCH   1   2
BRANCH   1  12
HETATM   12  C   PEA A   1       7.501 -26.823   7.724  1.00  0.00     0.186 C 
BRANCH  12  13
HETATM   13  C   PEA A   1       6.478 -25.724   7.463  1.00  0.00     0.184 C 
BRANCH  13  14
HETATM   14  O   PEA A   1       5.255 -26.327   7.035  1.00  0.00    -0.299 OA
BRANCH  14  15
HETATM   15  C   PEA A   1       4.405 -26.705   8.032  1.00  0.00     0.273 C 
HETATM   16  O   PEA A   1       4.335 -26.212   9.150  1.00  0.00    -0.264 OA
HETATM   17  C   PEA A   1       3.545 -27.837   7.558  1.00  0.00     0.106 C 
ENDBRANCH  14  15
ENDBRANCH  13  14
BRANCH  13  18
HETATM   18  C   PEA A   1       6.945 -24.776   6.366  1.00  0.00     0.184 C 
BRANCH  18  19
HETATM   19  O   PEA A   1       5.915 -24.652   5.393  1.00  0.00    -0.299 OA
BRANCH  19  20
HETATM   20  C   PEA A   1       6.124 -23.712   4.422  1.00  0.00     0.273 C 
HETATM   21  O   PEA A   1       6.938 -23.784   3.512  1.00  0.00    -0.264 OA
HETATM   22  C   PEA A   1       5.197 -22.553   4.632  1.00  0.00     0.106 C 
ENDBRANCH  19  20
ENDBRANCH  18  19
ENDBRANCH  13  18
ENDBRANCH  12  13
ENDBRANCH   1  12
TORSDOF 13
ENDMDL
