MODEL 1
REMARK VINA RESULT:      -3.0      0.000      0.000
REMARK  13 active torsions:
REMARK  status: ('A' for Active; 'I' for Inactive)
REMARK    1  A    between atoms: O_1  and  P_2 
REMARK    2  A    between atoms: O_1  and  C_12 
REMARK    3  A    between atoms: P_2  and  O_4 
REMARK    4  A    between atoms: P_2  and  O_10 
REMARK    5  A    between atoms: O_4  and  C_5 
REMARK    6  A    between atoms: C_5  and  C_6 
REMARK    7  A    between atoms: C_6  and  N_7 
REMARK    8  A    between atoms: C_12  and  C_13 
REMARK    9  A    between atoms: C_13  and  O_14 
REMARK   10  A    between atoms: C_13  and  C_18 
REMARK   11  A    between atoms: O_14  and  C_15 
REMARK   12  A    between atoms: C_18  and  O_19 
REMARK   13  A    between atoms: O_19  and  C_20 
ROOT
HETATM    1  O   PEA A   1       2.503 -21.900  13.827  1.00  0.00    -0.275 OA
ENDROOT
BRANCH   1   2
HETATM    2  P   PEA A   1       1.603 -22.505  12.622  1.00  0.00     0.395 P 
HETATM    3  O   PEA A   1       2.328 -23.463  11.722  1.00  0.00    -0.631 OA
BRANCH   2   4
HETATM    4  O   PEA A   1       0.293 -23.118  13.349  1.00  0.00    -0.276 OA
BRANCH   4   5
HETATM    5  C   PEA A   1      -0.630 -23.900  12.608  1.00  0.00     0.188 C 
BRANCH   5   6
HETATM    6  C   PEA A   1      -1.296 -24.890  13.550  1.00  0.00     0.274 C 
BRANCH   6   7
HETATM    7  N   PEA A   1      -0.305 -25.546  14.390  1.00  0.00     0.097 N 
HETATM    8  H   PEA A   1      -0.437 -26.556  14.352  1.00  0.00     0.314 HD
HETATM    9  H   PEA A   1       0.626 -25.365  14.020  1.00  0.00     0.314 HD
ENDBRANCH   6   7
ENDBRANCH   5   6
ENDBRANCH   4   5
ENDBRANCH   2   4
BRANCH   2  10
HETATM   10  O   PEA A   1       1.058 -21.177  11.873  1.00  0.00    -0.307 OA
HETATM   11  H   PEA A   1       1.526 -20.328  12.016  1.00  0.00     0.222 HD
ENDBRANCH   2  10
ENDBRANCH   1   2
BRANCH   1  12
HETATM   12  C   PEA A   1       1.844 -21.448  14.998  1.00  0.00     0.186 C 
BRANCH  12  13
HETATM   13  C   PEA A   1       2.229 -20.001  15.283  1.00  0.00     0.184 C 
BRANCH  13  14
HETATM   14  O   PEA A   1       1.971 -19.220  14.115  1.00  0.00    -0.299 OA
BRANCH  14  15
HETATM   15  C   PEA A   1       0.754 -18.606  14.075  1.00  0.00     0.273 C 
HETATM   16  O   PEA A   1      -0.118 -18.779  13.234  1.00  0.00    -0.264 OA
HETATM   17  C   PEA A   1       0.627 -17.665  15.235  1.00  0.00     0.106 C 
ENDBRANCH  14  15
ENDBRANCH  13  14
BRANCH  13  18
HETATM   18  C   PEA A   1       3.710 -19.874  15.618  1.00  0.00     0.184 C 
BRANCH  18  19
HETATM   19  O   PEA A   1       4.332 -19.039  14.647  1.00  0.00    -0.299 OA
BRANCH  19  20
HETATM   20  C   PEA A   1       5.687 -19.178  14.526  1.00  0.00     0.273 C 
HETATM   21  O   PEA A   1       6.528 -18.351  14.850  1.00  0.00    -0.264 OA
HETATM   22  C   PEA A   1       6.009 -20.513  13.927  1.00  0.00     0.106 C 
ENDBRANCH  19  20
ENDBRANCH  18  19
ENDBRANCH  13  18
ENDBRANCH  12  13
ENDBRANCH   1  12
TORSDOF 13
ENDMDL
