MODEL 1
REMARK VINA RESULT:      -3.6      0.000      0.000
REMARK  13 active torsions:
REMARK  status: ('A' for Active; 'I' for Inactive)
REMARK    1  A    between atoms: O_1  and  P_2 
REMARK    2  A    between atoms: O_1  and  C_12 
REMARK    3  A    between atoms: P_2  and  O_4 
REMARK    4  A    between atoms: P_2  and  O_10 
REMARK    5  A    between atoms: O_4  and  C_5 
REMARK    6  A    between atoms: C_5  and  C_6 
REMARK    7  A    between atoms: C_6  and  N_7 
REMARK    8  A    between atoms: C_12  and  C_13 
REMARK    9  A    between atoms: C_13  and  O_14 
REMARK   10  A    between atoms: C_13  and  C_18 
REMARK   11  A    between atoms: O_14  and  C_15 
REMARK   12  A    between atoms: C_18  and  O_19 
REMARK   13  A    between atoms: O_19  and  C_20 
ROOT
HETATM    1  O   PEA A   1     -11.808  16.658  -1.182  1.00  0.00    -0.275 OA
ENDROOT
BRANCH   1   2
HETATM    2  P   PEA A   1     -10.252  17.104  -1.271  1.00  0.00     0.395 P 
HETATM    3  O   PEA A   1     -10.032  18.585  -1.364  1.00  0.00    -0.631 OA
BRANCH   2   4
HETATM    4  O   PEA A   1      -9.542  16.392  -0.002  1.00  0.00    -0.276 OA
BRANCH   4   5
HETATM    5  C   PEA A   1     -10.239  15.405   0.740  1.00  0.00     0.188 C 
BRANCH   5   6
HETATM    6  C   PEA A   1      -9.611  14.049   0.458  1.00  0.00     0.274 C 
BRANCH   6   7
HETATM    7  N   PEA A   1      -9.585  13.783  -0.973  1.00  0.00     0.097 N 
HETATM    8  H   PEA A   1      -8.625  13.622  -1.274  1.00  0.00     0.314 HD
HETATM    9  H   PEA A   1     -10.095  12.922  -1.166  1.00  0.00     0.314 HD
ENDBRANCH   6   7
ENDBRANCH   5   6
ENDBRANCH   4   5
ENDBRANCH   2   4
BRANCH   2  10
HETATM   10  O   PEA A   1      -9.708  16.272  -2.549  1.00  0.00    -0.307 OA
HETATM   11  H   PEA A   1      -9.462  15.331  -2.431  1.00  0.00     0.222 HD
ENDBRANCH   2  10
ENDBRANCH   1   2
BRANCH   1  12
HETATM   12  C   PEA A   1     -12.511  16.421  -2.390  1.00  0.00     0.186 C 
BRANCH  12  13
HETATM   13  C   PEA A   1     -13.156  15.041  -2.352  1.00  0.00     0.184 C 
BRANCH  13  14
HETATM   14  O   PEA A   1     -12.720  14.363  -1.172  1.00  0.00    -0.299 OA
BRANCH  14  15
HETATM   15  C   PEA A   1     -13.699  13.737  -0.458  1.00  0.00     0.273 C 
HETATM   16  O   PEA A   1     -14.336  12.753  -0.811  1.00  0.00    -0.264 OA
HETATM   17  C   PEA A   1     -13.893  14.437   0.853  1.00  0.00     0.106 C 
ENDBRANCH  14  15
ENDBRANCH  13  14
BRANCH  13  18
HETATM   18  C   PEA A   1     -12.746  14.201  -3.555  1.00  0.00     0.184 C 
BRANCH  18  19
HETATM   19  O   PEA A   1     -11.385  13.814  -3.407  1.00  0.00    -0.299 OA
BRANCH  19  20
HETATM   20  C   PEA A   1     -11.108  12.503  -3.677  1.00  0.00     0.273 C 
HETATM   21  O   PEA A   1      -9.995  11.999  -3.734  1.00  0.00    -0.264 OA
HETATM   22  C   PEA A   1     -12.384  11.750  -3.900  1.00  0.00     0.106 C 
ENDBRANCH  19  20
ENDBRANCH  18  19
ENDBRANCH  13  18
ENDBRANCH  12  13
ENDBRANCH   1  12
TORSDOF 13
ENDMDL
