MODEL 1
REMARK VINA RESULT:      -3.6      0.000      0.000
REMARK  13 active torsions:
REMARK  status: ('A' for Active; 'I' for Inactive)
REMARK    1  A    between atoms: O_1  and  P_2 
REMARK    2  A    between atoms: O_1  and  C_12 
REMARK    3  A    between atoms: P_2  and  O_4 
REMARK    4  A    between atoms: P_2  and  O_10 
REMARK    5  A    between atoms: O_4  and  C_5 
REMARK    6  A    between atoms: C_5  and  C_6 
REMARK    7  A    between atoms: C_6  and  N_7 
REMARK    8  A    between atoms: C_12  and  C_13 
REMARK    9  A    between atoms: C_13  and  O_14 
REMARK   10  A    between atoms: C_13  and  C_18 
REMARK   11  A    between atoms: O_14  and  C_15 
REMARK   12  A    between atoms: C_18  and  O_19 
REMARK   13  A    between atoms: O_19  and  C_20 
ROOT
HETATM    1  O   PEA A   1     -11.774  16.655  -1.172  1.00  0.00    -0.275 OA
ENDROOT
BRANCH   1   2
HETATM    2  P   PEA A   1     -10.234  17.156  -1.246  1.00  0.00     0.395 P 
HETATM    3  O   PEA A   1     -10.066  18.645  -1.321  1.00  0.00    -0.631 OA
BRANCH   2   4
HETATM    4  O   PEA A   1      -9.507  16.455   0.018  1.00  0.00    -0.276 OA
BRANCH   4   5
HETATM    5  C   PEA A   1     -10.176  16.372   1.266  1.00  0.00     0.188 C 
BRANCH   5   6
HETATM    6  C   PEA A   1     -10.465  14.911   1.570  1.00  0.00     0.274 C 
BRANCH   6   7
HETATM    7  N   PEA A   1     -11.725  14.500   0.968  1.00  0.00     0.097 N 
HETATM    8  H   PEA A   1     -11.970  15.141   0.214  1.00  0.00     0.314 HD
HETATM    9  H   PEA A   1     -11.612  13.583   0.538  1.00  0.00     0.314 HD
ENDBRANCH   6   7
ENDBRANCH   5   6
ENDBRANCH   4   5
ENDBRANCH   2   4
BRANCH   2  10
HETATM   10  O   PEA A   1      -9.654  16.359  -2.531  1.00  0.00    -0.307 OA
HETATM   11  H   PEA A   1      -8.818  15.857  -2.437  1.00  0.00     0.222 HD
ENDBRANCH   2  10
ENDBRANCH   1   2
BRANCH   1  12
HETATM   12  C   PEA A   1     -12.462  16.407  -2.387  1.00  0.00     0.186 C 
BRANCH  12  13
HETATM   13  C   PEA A   1     -12.816  14.929  -2.489  1.00  0.00     0.184 C 
BRANCH  13  14
HETATM   14  O   PEA A   1     -11.872  14.289  -3.350  1.00  0.00    -0.299 OA
BRANCH  14  15
HETATM   15  C   PEA A   1     -11.058  13.372  -2.752  1.00  0.00     0.273 C 
HETATM   16  O   PEA A   1     -10.468  13.512  -1.689  1.00  0.00    -0.264 OA
HETATM   17  C   PEA A   1     -10.985  12.138  -3.598  1.00  0.00     0.106 C 
ENDBRANCH  14  15
ENDBRANCH  13  14
BRANCH  13  18
HETATM   18  C   PEA A   1     -14.205  14.728  -3.081  1.00  0.00     0.184 C 
BRANCH  18  19
HETATM   19  O   PEA A   1     -14.083  14.513  -4.483  1.00  0.00    -0.299 OA
BRANCH  19  20
HETATM   20  C   PEA A   1     -14.666  15.457  -5.282  1.00  0.00     0.273 C 
HETATM   21  O   PEA A   1     -14.621  16.668  -5.117  1.00  0.00    -0.264 OA
HETATM   22  C   PEA A   1     -15.385  14.788  -6.415  1.00  0.00     0.106 C 
ENDBRANCH  19  20
ENDBRANCH  18  19
ENDBRANCH  13  18
ENDBRANCH  12  13
ENDBRANCH   1  12
TORSDOF 13
ENDMDL
