MODEL 1
REMARK VINA RESULT:    -6.479      0.000      0.000
REMARK INTER + INTRA:          -8.354
REMARK INTER:                  -8.183
REMARK INTRA:                  -0.171
REMARK UNBOUND:                -0.171
REMARK  6 active torsions:
REMARK  status: ('A' for Active; 'I' for Inactive)
REMARK    1  A    between atoms: C3_3  and  N1_4 
REMARK    2  A    between atoms: C5_6  and  C17_22 
REMARK    3  A    between atoms: C6_7  and  O1_8 
REMARK    4  A    between atoms: C10_12  and  N2_15 
REMARK    5  A    between atoms: C17_22  and  O2_23 
REMARK    6  A    between atoms: C17_22  and  O3_24 
ROOT
HETATM    1  N1  CIP     1      28.561 -55.879 -11.005  1.00  0.00     0.099 N 
HETATM    2  C4  CIP     1      28.918 -57.026 -11.888  1.00  0.00     0.285 C 
HETATM    3  C5  CIP     1      30.215 -57.804 -11.504  1.00  0.00     0.098 C 
HETATM    4  C6  CIP     1      30.277 -58.170  -9.984  1.00  0.00     0.135 C 
HETATM    5  C7  CIP     1      29.158 -57.474  -9.178  1.00  0.00     0.051 C 
HETATM    6  C8  CIP     1      29.315 -57.646  -7.643  1.00  0.00     0.049 C 
HETATM    7  C9  CIP     1      29.823 -56.378  -6.942  1.00  0.00     0.204 C 
HETATM    8  C10 CIP     1      28.922 -55.121  -7.216  1.00  0.00     0.258 C 
HETATM    9  C11 CIP     1      28.212 -55.232  -8.606  1.00  0.00     0.075 C 
HETATM   10  C12 CIP     1      29.088 -55.992  -9.619  1.00  0.00     0.232 C 
HETATM   11  F1  CIP     1      29.944 -56.654  -5.592  1.00  0.00    -0.247 F 
ENDROOT
BRANCH   8  12
HETATM   12  N2  CIP     1      27.989 -54.869  -6.072  1.00  0.00     0.099 N 
HETATM   13  C13 CIP     1      28.443 -53.724  -5.228  1.00  0.00     0.302 C 
HETATM   14  C14 CIP     1      27.562 -52.475  -5.381  1.00  0.00     0.299 C 
HETATM   15  N3  CIP     1      26.167 -52.747  -5.004  1.00  0.00     0.086 N 
HETATM   16  C15 CIP     1      25.724 -54.115  -5.330  1.00  0.00     0.299 C 
HETATM   17  H13 CIP     1      25.556 -52.066  -5.515  1.00  0.00     0.315 HD
HETATM   18  C16 CIP     1      26.557 -54.746  -6.455  1.00  0.00     0.302 C 
ENDBRANCH   8  12
BRANCH   1  19
HETATM   19  C3  CIP     1      28.944 -54.594 -11.624  1.00  0.00     0.223 A 
HETATM   20  C1  CIP     1      27.788 -53.610 -11.757  1.00  0.00     0.038 A 
HETATM   21  C2  CIP     1      28.303 -54.335 -12.983  1.00  0.00     0.038 A 
ENDBRANCH   1  19
BRANCH   4  22
HETATM   22  O1  CIP     1      30.221 -59.565  -9.803  1.00  0.00    -0.395 OA
HETATM   23  H4  CIP     1      29.932 -59.734  -8.867  1.00  0.00     0.210 HD
ENDBRANCH   4  22
BRANCH   3  24
HETATM   24  C17 CIP     1      31.529 -57.148 -12.006  1.00  0.00     0.262 C 
BRANCH  24  25
HETATM   25  O2  CIP     1      32.571 -57.326 -11.076  1.00  0.00    -0.371 OA
HETATM   26  H12 CIP     1      32.173 -57.311 -10.168  1.00  0.00     0.212 HD
ENDBRANCH  24  25
BRANCH  24  27
HETATM   27  O3  CIP     1      31.898 -57.628 -13.272  1.00  0.00    -0.371 OA
HETATM   28  H18 CIP     1      32.564 -58.347 -13.118  1.00  0.00     0.212 HD
ENDBRANCH  24  27
ENDBRANCH   3  24
TORSDOF 6
ENDMDL
