MODEL 1
REMARK VINA RESULT:    -7.703      0.000      0.000
REMARK INTER + INTRA:         -14.470
REMARK INTER:                 -12.881
REMARK INTRA:                  -1.589
REMARK UNBOUND:                -1.589
REMARK  16 active torsions:
REMARK  status: ('A' for Active; 'I' for Inactive)
REMARK    1  A    between atoms: C3_3  and  C20_33 
REMARK    2  A    between atoms: C5_7  and  N2_10 
REMARK    3  A    between atoms: C6_8  and  O1_9 
REMARK    4  A    between atoms: N2_10  and  C7_11 
REMARK    5  A    between atoms: C7_11  and  O2_12 
REMARK    6  A    between atoms: C7_11  and  C8_13 
REMARK    7  A    between atoms: C8_13  and  C9_14 
REMARK    8  A    between atoms: C8_13  and  N3_20 
REMARK    9  A    between atoms: N3_20  and  C15_21 
REMARK   10  A    between atoms: C15_21  and  O3_22 
REMARK   11  A    between atoms: C15_21  and  N4_23 
REMARK   12  A    between atoms: C18_27  and  O4_28 
REMARK   13  A    between atoms: S2_29  and  O5_30 
REMARK   14  A    between atoms: S2_29  and  O6_31 
REMARK   15  A    between atoms: C20_33  and  O7_34 
REMARK   16  A    between atoms: C20_33  and  O8_35 
ROOT
HETATM    1  C8  MEZ     1      31.046 -56.289 -11.434  1.00  0.00     0.288 C 
ENDROOT
BRANCH   1   2
HETATM    2  C7  MEZ     1      32.161 -56.518 -10.354  1.00  0.00     0.388 C 
BRANCH   2   3
HETATM    3  N2  MEZ     1      31.595 -56.814  -9.023  1.00  0.00     0.126 N 
HETATM    4  H7  MEZ     1      31.306 -55.929  -8.546  1.00  0.00     0.320 HD
BRANCH   3   5
HETATM    5  C5  MEZ     1      32.449 -57.663  -8.165  1.00  0.00     0.325 A 
HETATM    6  C4  MEZ     1      32.170 -57.625  -6.656  1.00  0.00     0.326 A 
HETATM    7  N1  MEZ     1      31.625 -58.988  -6.632  1.00  0.00     0.146 N 
HETATM    8  S1  MEZ     1      30.970 -56.401  -6.026  1.00  0.00    -0.119 SA
HETATM    9  C3  MEZ     1      30.190 -58.934  -6.263  1.00  0.00     0.299 C 
HETATM   10  C6  MEZ     1      31.944 -59.100  -8.076  1.00  0.00     0.395 A 
HETATM   11  C2  MEZ     1      29.989 -57.735  -5.296  1.00  0.00     0.039 C 
HETATM   12  C1  MEZ     1      30.521 -57.999  -3.873  1.00  0.00     0.029 C 
HETATM   13  C21 MEZ     1      28.525 -57.262  -5.228  1.00  0.00     0.029 C 
BRANCH   9  14
HETATM   14  C20 MEZ     1      29.774 -60.313  -5.688  1.00  0.00     0.289 C 
BRANCH  14  15
HETATM   15  O7  MEZ     1      30.375 -61.341  -6.434  1.00  0.00    -0.369 OA
HETATM   16  H18 MEZ     1      30.115 -61.194  -7.380  1.00  0.00     0.212 HD
ENDBRANCH  14  15
BRANCH  14  17
HETATM   17  O8  MEZ     1      28.380 -60.475  -5.699  1.00  0.00    -0.369 OA
HETATM   18  H22 MEZ     1      27.987 -59.601  -5.964  1.00  0.00     0.212 HD
ENDBRANCH  14  17
ENDBRANCH   9  14
BRANCH  10  19
HETATM   19  O1  MEZ     1      30.842 -59.360  -8.910  1.00  0.00    -0.366 OA
HETATM   20  H2  MEZ     1      30.136 -58.715  -8.646  1.00  0.00     0.212 HD
ENDBRANCH  10  19
ENDBRANCH   3   5
ENDBRANCH   2   3
BRANCH   2  21
HETATM   21  O2  MEZ     1      33.078 -57.519 -10.736  1.00  0.00    -0.366 OA
HETATM   22  H4  MEZ     1      33.984 -57.238 -10.444  1.00  0.00     0.212 HD
ENDBRANCH   2  21
ENDBRANCH   1   2
BRANCH   1  23
HETATM   23  C9  MEZ     1      29.598 -56.129 -10.870  1.00  0.00     0.023 C 
HETATM   24  C10 MEZ     1      28.911 -54.796 -11.238  1.00  0.00     0.007 C 
HETATM   25  C11 MEZ     1      27.634 -54.576 -10.401  1.00  0.00     0.000 C 
HETATM   26  C12 MEZ     1      26.911 -55.888 -10.030  1.00  0.00     0.000 C 
HETATM   27  C13 MEZ     1      27.167 -56.994 -11.062  1.00  0.00     0.000 C 
HETATM   28  C14 MEZ     1      28.667 -57.336 -11.180  1.00  0.00     0.007 C 
ENDBRANCH   1  23
BRANCH   1  29
HETATM   29  N3  MEZ     1      31.342 -55.098 -12.269  1.00  0.00     0.152 N 
HETATM   30  H14 MEZ     1      31.987 -54.419 -11.803  1.00  0.00     0.322 HD
BRANCH  29  31
HETATM   31  C15 MEZ     1      31.885 -55.442 -13.594  1.00  0.00     0.600 C 
BRANCH  31  32
HETATM   32  O3  MEZ     1      32.407 -56.749 -13.559  1.00  0.00    -0.345 OA
HETATM   33  H12 MEZ     1      32.110 -57.164 -12.708  1.00  0.00     0.214 HD
ENDBRANCH  31  32
BRANCH  31  34
HETATM   34  N4  MEZ     1      32.973 -54.501 -13.931  1.00  0.00     0.198 N 
HETATM   35  C16 MEZ     1      32.486 -53.229 -14.452  1.00  0.00     0.304 C 
HETATM   36  C17 MEZ     1      33.613 -52.696 -15.312  1.00  0.00     0.168 C 
HETATM   37  N5  MEZ     1      34.492 -53.818 -15.614  1.00  0.00    -0.280 N 
HETATM   38  C18 MEZ     1      33.912 -54.983 -14.956  1.00  0.00     0.480 C 
HETATM   39  S2  MEZ     1      35.473 -53.375 -16.554  1.00  0.00     0.045 S 
HETATM   40  C19 MEZ     1      37.103 -53.644 -14.899  1.00  0.00     0.150 C 
BRANCH  38  41
HETATM   41  O4  MEZ     1      33.269 -55.769 -15.931  1.00  0.00    -0.352 OA
HETATM   42  H14 MEZ     1      33.974 -56.292 -16.393  1.00  0.00     0.214 HD
ENDBRANCH  38  41
BRANCH  39  43
HETATM   43  O5  MEZ     1      36.416 -55.691 -17.327  1.00  0.00    -0.312 OA
HETATM   44  H15 MEZ     1      37.127 -55.516 -17.994  1.00  0.00     0.230 HD
ENDBRANCH  39  43
BRANCH  39  45
HETATM   45  O6  MEZ     1      35.078 -54.037 -18.147  1.00  0.00    -0.312 OA
HETATM   46  H16 MEZ     1      35.757 -54.542 -18.662  1.00  0.00     0.230 HD
ENDBRANCH  39  45
ENDBRANCH  31  34
ENDBRANCH  29  31
ENDBRANCH   1  29
TORSDOF 16
ENDMDL
