MODEL 1
REMARK VINA RESULT:    -6.138      0.000      0.000
REMARK INTER + INTRA:          -7.800
REMARK INTER:                  -7.394
REMARK INTRA:                  -0.406
REMARK UNBOUND:                -0.406
REMARK  5 active torsions:
REMARK  status: ('A' for Active; 'I' for Inactive)
REMARK    1  A    between atoms: C2_2  and  N1_3 
REMARK    2  A    between atoms: C4_5  and  C12_15 
REMARK    3  A    between atoms: C5_6  and  O1_7 
REMARK    4  A    between atoms: C12_15  and  O2_16 
REMARK    5  A    between atoms: C12_15  and  O3_17 
ROOT
HETATM    1  N1  NDX     1      -4.865  -9.816  -1.088  1.00  0.00     0.122 N 
HETATM    2  C3  NDX     1      -4.058 -11.007  -1.423  1.00  0.00     0.287 C 
HETATM    3  C4  NDX     1      -4.490 -12.201  -0.554  1.00  0.00     0.098 C 
HETATM    4  C5  NDX     1      -4.290 -11.842   0.940  1.00  0.00     0.136 C 
HETATM    5  C6  NDX     1      -5.030 -10.529   1.296  1.00  0.00     0.079 C 
HETATM    6  C7  NDX     1      -4.653  -9.386   0.318  1.00  0.00     0.460 C 
HETATM    7  N2  NDX     1      -5.463  -8.182   0.613  1.00  0.00     0.122 N 
HETATM    8  C8  NDX     1      -5.619  -7.853   2.048  1.00  0.00     0.219 C 
HETATM    9  C9  NDX     1      -4.623  -8.601   2.952  1.00  0.00     0.036 C 
HETATM   10  C10 NDX     1      -4.753 -10.120   2.767  1.00  0.00     0.013 C 
HETATM   11  C11 NDX     1      -5.469  -6.342   2.229  1.00  0.00     0.042 C 
HETATM   12  H7  NDX     1      -6.423  -8.319   0.213  1.00  0.00     0.319 HD
ENDROOT
BRANCH   3  13
HETATM   13  C12 NDX     1      -3.734 -13.488  -0.981  1.00  0.00     0.262 C 
BRANCH  13  14
HETATM   14  O2  NDX     1      -3.142 -13.336  -2.247  1.00  0.00    -0.371 OA
HETATM   15  H12 NDX     1      -2.352 -12.743  -2.141  1.00  0.00     0.212 HD
ENDBRANCH  13  14
BRANCH  13  16
HETATM   16  O3  NDX     1      -2.762 -13.847  -0.030  1.00  0.00    -0.371 OA
HETATM   17  H12 NDX     1      -2.858 -13.218   0.731  1.00  0.00     0.212 HD
ENDBRANCH  13  16
ENDBRANCH   3  13
BRANCH   4  18
HETATM   18  O1  NDX     1      -4.718 -12.889   1.776  1.00  0.00    -0.394 OA
HETATM   19  H4  NDX     1      -3.912 -13.399   2.053  1.00  0.00     0.210 HD
ENDBRANCH   4  18
BRANCH   1  20
HETATM   20  C2  NDX     1      -4.683  -8.733  -2.090  1.00  0.00     0.271 C 
HETATM   21  C1  NDX     1      -5.647  -8.798  -3.282  1.00  0.00     0.037 C 
ENDBRANCH   1  20
TORSDOF 5
ENDMDL
