MODEL 1
REMARK VINA RESULT:    -6.220      0.000      0.000
REMARK INTER + INTRA:          -8.521
REMARK INTER:                  -7.857
REMARK INTRA:                  -0.665
REMARK UNBOUND:                -0.665
REMARK  6 active torsions:
REMARK  status: ('A' for Active; 'I' for Inactive)
REMARK    1  A    between atoms: C2_2  and  N1_3 
REMARK    2  A    between atoms: C4_5  and  C16_21 
REMARK    3  A    between atoms: C5_6  and  O1_7 
REMARK    4  A    between atoms: C9_11  and  N2_14 
REMARK    5  A    between atoms: C16_21  and  O2_22 
REMARK    6  A    between atoms: C16_21  and  O3_23 
ROOT
HETATM    1  N1  NOR     1     -29.296  -5.598  -6.061  1.00  0.00     0.093 N 
HETATM    2  C3  NOR     1     -29.983  -4.916  -4.930  1.00  0.00     0.284 C 
HETATM    3  C4  NOR     1     -30.073  -3.367  -5.055  1.00  0.00     0.098 C 
HETATM    4  C5  NOR     1     -30.577  -2.884  -6.456  1.00  0.00     0.135 C 
HETATM    5  C6  NOR     1     -30.688  -4.051  -7.456  1.00  0.00     0.051 C 
HETATM    6  C7  NOR     1     -31.018  -3.576  -8.902  1.00  0.00     0.049 C 
HETATM    7  C8  NOR     1     -29.859  -3.761  -9.898  1.00  0.00     0.204 C 
HETATM    8  C9  NOR     1     -29.245  -5.195  -9.885  1.00  0.00     0.258 C 
HETATM    9  C10 NOR     1     -29.414  -5.924  -8.522  1.00  0.00     0.075 C 
HETATM   10  C11 NOR     1     -29.401  -4.905  -7.370  1.00  0.00     0.231 C 
HETATM   11  F1  NOR     1     -30.270  -3.405 -11.172  1.00  0.00    -0.247 F 
ENDROOT
BRANCH   8  12
HETATM   12  N2  NOR     1     -29.653  -6.007 -11.067  1.00  0.00     0.099 N 
HETATM   13  C12 NOR     1     -28.513  -6.314 -11.953  1.00  0.00     0.302 C 
HETATM   14  C13 NOR     1     -29.022  -6.949 -13.253  1.00  0.00     0.299 C 
HETATM   15  N3  NOR     1     -29.809  -8.158 -12.980  1.00  0.00     0.086 N 
HETATM   16  C14 NOR     1     -30.922  -7.861 -12.068  1.00  0.00     0.299 C 
HETATM   17  H13 NOR     1     -29.187  -8.872 -12.533  1.00  0.00     0.315 HD
HETATM   18  C15 NOR     1     -30.415  -7.236 -10.763  1.00  0.00     0.302 C 
ENDBRANCH   8  12
BRANCH   1  19
HETATM   19  C2  NOR     1     -27.910  -5.994  -5.722  1.00  0.00     0.268 C 
HETATM   20  C1  NOR     1     -27.813  -6.301  -4.232  1.00  0.00     0.037 C 
ENDBRANCH   1  19
BRANCH   4  21
HETATM   21  O1  NOR     1     -31.836  -2.272  -6.328  1.00  0.00    -0.395 OA
HETATM   22  H4  NOR     1     -31.678  -1.291  -6.323  1.00  0.00     0.210 HD
ENDBRANCH   4  21
BRANCH   3  23
HETATM   23  C16 NOR     1     -28.769  -2.656  -4.610  1.00  0.00     0.262 C 
BRANCH  23  24
HETATM   24  O2  NOR     1     -29.012  -1.890  -3.458  1.00  0.00    -0.371 OA
HETATM   25  H12 NOR     1     -28.489  -1.051  -3.555  1.00  0.00     0.212 HD
ENDBRANCH  23  24
BRANCH  23  26
HETATM   26  O3  NOR     1     -28.294  -1.814  -5.625  1.00  0.00    -0.371 OA
HETATM   27  H18 NOR     1     -27.375  -1.548  -5.361  1.00  0.00     0.212 HD
ENDBRANCH  23  26
ENDBRANCH   3  23
TORSDOF 6
ENDMDL
