MODEL 1
REMARK VINA RESULT:    -5.943      0.000      0.000
REMARK INTER + INTRA:          -9.063
REMARK INTER:                  -8.374
REMARK INTRA:                  -0.688
REMARK UNBOUND:                -0.688
REMARK  9 active torsions:
REMARK  status: ('A' for Active; 'I' for Inactive)
REMARK    1  A    between atoms: C3_3  and  C15_20 
REMARK    2  A    between atoms: C5_7  and  N2_10 
REMARK    3  A    between atoms: C6_8  and  O1_9 
REMARK    4  A    between atoms: N2_10  and  C7_11 
REMARK    5  A    between atoms: C7_11  and  O2_12 
REMARK    6  A    between atoms: C7_11  and  C8_13 
REMARK    7  A    between atoms: C8_13  and  C9_14 
REMARK    8  A    between atoms: C15_20  and  O3_21 
REMARK    9  A    between atoms: C15_20  and  O4_22 
ROOT
HETATM    1  C1  PEN     1      16.230 -42.556 -15.319  1.00  0.00     0.029 C 
HETATM    2  C2  PEN     1      16.740 -43.993 -15.574  1.00  0.00     0.039 C 
HETATM    3  C3  PEN     1      15.673 -45.144 -15.427  1.00  0.00     0.299 C 
HETATM    4  N1  PEN     1      16.153 -46.218 -14.529  1.00  0.00     0.146 N 
HETATM    5  C4  PEN     1      17.391 -45.874 -13.829  1.00  0.00     0.326 A 
HETATM    6  S1  PEN     1      18.080 -44.284 -14.382  1.00  0.00    -0.119 SA
HETATM    7  C5  PEN     1      18.123 -47.123 -14.334  1.00  0.00     0.325 A 
HETATM    8  C6  PEN     1      16.836 -47.390 -15.121  1.00  0.00     0.395 A 
HETATM    9  C16 PEN     1      17.349 -44.013 -16.991  1.00  0.00     0.029 C 
ENDROOT
BRANCH   7  10
HETATM   10  N2  PEN     1      19.343 -46.857 -15.127  1.00  0.00     0.124 N 
HETATM   11  H7  PEN     1      19.274 -47.288 -16.076  1.00  0.00     0.320 HD
BRANCH  10  12
HETATM   12  C7  PEN     1      20.551 -47.351 -14.442  1.00  0.00     0.354 C 
BRANCH  12  13
HETATM   13  O2  PEN     1      20.262 -47.592 -13.088  1.00  0.00    -0.368 OA
HETATM   14  H4  PEN     1      20.870 -48.319 -12.791  1.00  0.00     0.212 HD
ENDBRANCH  12  13
BRANCH  12  15
HETATM   15  C8  PEN     1      21.005 -48.669 -15.095  1.00  0.00     0.068 C 
BRANCH  15  16
HETATM   16  C9  PEN     1      20.114 -49.101 -16.284  1.00  0.00    -0.010 C 
HETATM   17  C10 PEN     1      20.859 -48.886 -17.616  1.00  0.00     0.005 C 
HETATM   18  C11 PEN     1      19.956 -49.182 -18.831  1.00  0.00     0.000 C 
HETATM   19  C12 PEN     1      18.882 -50.252 -18.552  1.00  0.00     0.000 C 
HETATM   20  C13 PEN     1      19.350 -51.259 -17.499  1.00  0.00     0.000 C 
HETATM   21  C14 PEN     1      19.644 -50.576 -16.148  1.00  0.00     0.005 C 
ENDBRANCH  15  16
ENDBRANCH  12  15
ENDBRANCH  10  12
ENDBRANCH   7  10
BRANCH   8  22
HETATM   22  O1  PEN     1      16.993 -47.310 -16.516  1.00  0.00    -0.366 OA
HETATM   23  H2  PEN     1      16.985 -46.343 -16.741  1.00  0.00     0.212 HD
ENDBRANCH   8  22
BRANCH   3  24
HETATM   24  C15 PEN     1      14.268 -44.745 -14.915  1.00  0.00     0.289 C 
BRANCH  24  25
HETATM   25  O3  PEN     1      13.422 -44.419 -15.987  1.00  0.00    -0.369 OA
HETATM   26  H12 PEN     1      13.909 -43.760 -16.546  1.00  0.00     0.212 HD
ENDBRANCH  24  25
BRANCH  24  27
HETATM   27  O4  PEN     1      13.709 -45.770 -14.137  1.00  0.00    -0.369 OA
HETATM   28  H15 PEN     1      14.200 -45.776 -13.274  1.00  0.00     0.212 HD
ENDBRANCH  24  27
ENDBRANCH   3  24
TORSDOF 9
ENDMDL
