MODEL 1
REMARK VINA RESULT:    -6.561      0.000      0.000
REMARK INTER + INTRA:         -12.781
REMARK INTER:                 -10.781
REMARK INTRA:                  -2.000
REMARK UNBOUND:                -2.000
REMARK  16 active torsions:
REMARK  status: ('A' for Active; 'I' for Inactive)
REMARK    1  A    between atoms: C2_2  and  N5_32 
REMARK    2  A    between atoms: C3_3  and  O7_21 
REMARK    3  A    between atoms: C4_4  and  O6_20 
REMARK    4  A    between atoms: C5_5  and  O1_8 
REMARK    5  A    between atoms: C6_6  and  N1_7 
REMARK    6  A    between atoms: O1_8  and  C7_9 
REMARK    7  A    between atoms: C8_10  and  O5_19 
REMARK    8  A    between atoms: C9_11  and  N2_18 
REMARK    9  A    between atoms: C10_12  and  O4_17 
REMARK   10  A    between atoms: C11_13  and  C12_15 
REMARK   11  A    between atoms: C12_15  and  O3_16 
REMARK   12  A    between atoms: O7_21  and  C13_22 
REMARK   13  A    between atoms: C14_23  and  N4_31 
REMARK   14  A    between atoms: C16_25  and  O9_30 
REMARK   15  A    between atoms: C17_26  and  C18_28 
REMARK   16  A    between atoms: C18_28  and  N3_29 
ROOT
HETATM    1  C1  TOB     1      26.769 -54.633  -9.340  1.00  0.00     0.076 C 
HETATM    2  C2  TOB     1      27.716 -54.737  -8.121  1.00  0.00     0.251 C 
HETATM    3  C3  TOB     1      29.214 -54.815  -8.518  1.00  0.00     0.189 C 
HETATM    4  C4  TOB     1      29.611 -53.731  -9.544  1.00  0.00     0.180 C 
HETATM    5  C5  TOB     1      28.702 -53.740 -10.806  1.00  0.00     0.189 C 
HETATM    6  C6  TOB     1      27.198 -53.651 -10.458  1.00  0.00     0.251 C 
ENDROOT
BRANCH   5   7
HETATM    7  O1  TOB     1      28.906 -54.928 -11.558  1.00  0.00    -0.348 OA
BRANCH   7   8
HETATM    8  C7  TOB     1      30.015 -54.844 -12.442  1.00  0.00     0.291 C 
HETATM    9  C8  TOB     1      29.528 -54.300 -13.809  1.00  0.00     0.208 C 
HETATM   10  C9  TOB     1      30.509 -54.666 -14.962  1.00  0.00     0.282 C 
HETATM   11  C10 TOB     1      31.900 -55.013 -14.403  1.00  0.00     0.184 C 
HETATM   12  C11 TOB     1      31.757 -56.166 -13.368  1.00  0.00     0.179 C 
HETATM   13  O2  TOB     1      30.556 -56.143 -12.599  1.00  0.00    -0.349 OA
BRANCH   9  14
HETATM   14  O5  TOB     1      28.233 -54.758 -14.114  1.00  0.00    -0.388 OA
HETATM   15  H21 TOB     1      28.244 -55.749 -14.060  1.00  0.00     0.210 HD
ENDBRANCH   9  14
BRANCH  10  16
HETATM   16  N2  TOB     1      30.605 -53.581 -15.942  1.00  0.00     0.088 N 
HETATM   17  H19 TOB     1      29.815 -52.915 -15.780  1.00  0.00     0.313 HD
HETATM   18  H20 TOB     1      31.496 -53.054 -15.792  1.00  0.00     0.313 HD
ENDBRANCH  10  16
BRANCH  11  19
HETATM   19  O4  TOB     1      32.753 -55.424 -15.442  1.00  0.00    -0.391 OA
HETATM   20  H18 TOB     1      33.397 -54.686 -15.600  1.00  0.00     0.210 HD
ENDBRANCH  11  19
BRANCH  12  21
HETATM   21  C12 TOB     1      32.982 -56.294 -12.449  1.00  0.00     0.198 C 
BRANCH  21  22
HETATM   22  O3  TOB     1      34.160 -56.476 -13.188  1.00  0.00    -0.398 OA
HETATM   23  H17 TOB     1      33.910 -56.948 -14.024  1.00  0.00     0.209 HD
ENDBRANCH  21  22
ENDBRANCH  12  21
ENDBRANCH   7   8
ENDBRANCH   5   7
BRANCH   4  24
HETATM   24  O6  TOB     1      29.618 -52.465  -8.937  1.00  0.00    -0.390 OA
HETATM   25  H22 TOB     1      30.478 -52.032  -9.180  1.00  0.00     0.210 HD
ENDBRANCH   4  24
BRANCH   6  26
HETATM   26  N1  TOB     1      26.775 -52.268 -10.207  1.00  0.00     0.085 N 
HETATM   27  H8  TOB     1      27.559 -51.740  -9.760  1.00  0.00     0.313 HD
HETATM   28  H9  TOB     1      26.521 -51.779 -11.088  1.00  0.00     0.313 HD
ENDBRANCH   6  26
BRANCH   3  29
HETATM   29  O7  TOB     1      29.514 -56.085  -9.084  1.00  0.00    -0.349 OA
BRANCH  29  30
HETATM   30  C13 TOB     1      30.046 -57.009  -8.143  1.00  0.00     0.293 C 
HETATM   31  C14 TOB     1      31.210 -57.796  -8.793  1.00  0.00     0.275 C 
HETATM   32  C15 TOB     1      31.454 -59.141  -8.062  1.00  0.00     0.074 C 
HETATM   33  C16 TOB     1      30.917 -59.103  -6.626  1.00  0.00     0.151 C 
HETATM   34  C17 TOB     1      29.407 -58.713  -6.639  1.00  0.00     0.181 C 
HETATM   35  O8  TOB     1      29.028 -57.919  -7.762  1.00  0.00    -0.349 OA
BRANCH  31  36
HETATM   36  N4  TOB     1      30.959 -58.023 -10.218  1.00  0.00     0.087 N 
HETATM   37  H34 TOB     1      31.864 -58.261 -10.687  1.00  0.00     0.313 HD
HETATM   38  H35 TOB     1      30.315 -58.840 -10.334  1.00  0.00     0.313 HD
ENDBRANCH  31  36
BRANCH  33  39
HETATM   39  O9  TOB     1      31.077 -60.364  -6.027  1.00  0.00    -0.393 OA
HETATM   40  H33 TOB     1      31.636 -60.906  -6.643  1.00  0.00     0.210 HD
ENDBRANCH  33  39
BRANCH  34  41
HETATM   41  C18 TOB     1      28.955 -58.015  -5.336  1.00  0.00     0.301 C 
BRANCH  41  42
HETATM   42  N3  TOB     1      29.672 -58.507  -4.159  1.00  0.00     0.080 N 
HETATM   43  H31 TOB     1      30.007 -59.482  -4.339  1.00  0.00     0.312 HD
HETATM   44  H32 TOB     1      30.505 -57.901  -3.985  1.00  0.00     0.312 HD
ENDBRANCH  41  42
ENDBRANCH  34  41
ENDBRANCH  29  30
ENDBRANCH   3  29
BRANCH   2  45
HETATM   45  N5  TOB     1      27.475 -53.696  -7.115  1.00  0.00     0.085 N 
HETATM   46  H36 TOB     1      27.087 -54.097  -6.239  1.00  0.00     0.313 HD
HETATM   47  H37 TOB     1      28.385 -53.239  -6.873  1.00  0.00     0.313 HD
ENDBRANCH   2  45
TORSDOF 16
ENDMDL
