@<TRIPOS>MOLECULE
pea.pdb
 37 36 0 0 0
SMALL
GASTEIGER

@<TRIPOS>ATOM
      1  O         58.6970   78.5850   32.4130 O.3     1  A11        -0.2828
      2  P         60.2610   78.8300   32.7570 P.3     1  A11         0.4751
      3  O1        61.0530   77.5750   32.9890 O.2     1  A11        -0.2273
      4  O2        60.8100   79.7660   31.5570 O.3     1  A11        -0.2854
      5  C         62.1590   79.6610   31.1350 C.3     1  A11         0.0713
      6  C1        63.0160   80.5600   32.0120 C.3     1  A11         0.0172
      7  N         63.3890   79.8750   33.2400 N.3     1  A11        -0.3279
      8  H         62.5520   79.5360   33.7120 H       1  A11         0.1183
      9  H1        63.9440   79.0520   33.0140 H       1  A11         0.1183
     10  O3        60.2020   79.8190   34.0390 O.3     1  A11        -0.3025
     11  H2        59.5510   80.5510   34.0400 H       1  A11         0.2220
     12  C2        58.3630   77.5810   31.4690 C.3     1  A11         0.0993
     13  C3        57.2970   76.6590   32.0480 C.3     1  A11         0.1605
     14  O4        56.0130   77.2480   31.8280 O.3     1  A11        -0.4557
     15  C4        55.1900   76.5630   30.9830 C.2     1  A11         0.3044
     16  O5        54.6090   75.5140   31.2290 O.2     1  A11        -0.2512
     17  C5        55.0900   77.2920   29.6770 C.3     1  A11         0.0332
     18  C6        57.4770   76.4710   33.5490 C.3     1  A11         0.1315
     19  O6        56.7070   75.3510   33.9710 O.3     1  A11        -0.4610
     20  C7        56.5140   75.2360   35.3200 C.2     1  A11         0.3041
     21  O7        57.2710   74.6940   36.1120 O.2     1  A11        -0.2512
     22  C8        55.2170   75.8820   35.7030 C.3     1  A11         0.0332
     23  H         62.2420   79.9700   30.1140 H       1  A11         0.0578
     24  H         62.4890   78.6470   31.2200 H       1  A11         0.0578
     25  H         62.4630   81.4430   32.2560 H       1  A11         0.0444
     26  H         63.9060   80.8160   31.4770 H       1  A11         0.0444
     27  H         59.2370   77.0100   31.2340 H       1  A11         0.0604
     28  H         57.9840   78.0440   30.5820 H       1  A11         0.0604
     29  H         57.3830   75.7070   31.5670 H       1  A11         0.0792
     30  H         55.6900   78.1770   29.7160 H       1  A11         0.0342
     31  H         54.0700   77.5600   29.4950 H       1  A11         0.0342
     32  H         55.4390   76.6590   28.8880 H       1  A11         0.0342
     33  H         57.1450   77.3490   34.0630 H       1  A11         0.0736
     34  H         58.5100   76.3040   33.7710 H       1  A11         0.0736
     35  H         54.7460   76.2810   34.8290 H       1  A11         0.0342
     36  H         55.4040   76.6720   36.4000 H       1  A11         0.0342
     37  H         54.5750   75.1540   36.1530 H       1  A11         0.0342
@<TRIPOS>BOND
     1     1     2    1
     2     1    12    1
     3     2     3    2
     4     2     4    1
     5     2    10    1
     6     4     5    1
     7     5     6    1
     8     5    23    1
     9     5    24    1
    10     6     7    1
    11     6    25    1
    12     6    26    1
    13     7     8    1
    14     7     9    1
    15    10    11    1
    16    12    13    1
    17    12    27    1
    18    12    28    1
    19    13    14    1
    20    13    18    1
    21    13    29    1
    22    14    15    1
    23    15    16    2
    24    15    17    1
    25    17    30    1
    26    17    31    1
    27    17    32    1
    28    18    19    1
    29    18    33    1
    30    18    34    1
    31    19    20    1
    32    20    21    2
    33    20    22    1
    34    22    35    1
    35    22    36    1
    36    22    37    1
