@<TRIPOS>MOLECULE
pea.pdb
   37    36     1     0     0
SMALL
bcc


@<TRIPOS>ATOM
      1 O           58.6970    78.5850    32.4130 os         1 A11      -0.581200
      2 P           60.2610    78.8300    32.7570 p5         1 A11       1.621500
      3 O1          61.0530    77.5750    32.9890 o          1 A11      -0.800300
      4 O2          60.8100    79.7660    31.5570 os         1 A11      -0.580200
      5 C           62.1590    79.6610    31.1350 c3         1 A11       0.124400
      6 C1          63.0160    80.5600    32.0120 c3         1 A11       0.137800
      7 N           63.3890    79.8750    33.2400 n8         1 A11      -0.914800
      8 H           62.5520    79.5360    33.7120 hn         1 A11       0.355800
      9 H1          63.9440    79.0520    33.0140 hn         1 A11       0.355800
     10 O3          60.2020    79.8190    34.0390 oh         1 A11      -0.754400
     11 H2          59.5510    80.5510    34.0400 ho         1 A11       0.488000
     12 C2          58.3630    77.5810    31.4690 c3         1 A11       0.158400
     13 C3          57.2970    76.6590    32.0480 c3         1 A11       0.099100
     14 O4          56.0130    77.2480    31.8280 os         1 A11      -0.428900
     15 C4          55.1900    76.5630    30.9830 c          1 A11       0.640100
     16 O5          54.6090    75.5140    31.2290 o          1 A11      -0.547000
     17 C5          55.0900    77.2920    29.6770 c3         1 A11      -0.149100
     18 C6          57.4770    76.4710    33.5490 c3         1 A11       0.129400
     19 O6          56.7070    75.3510    33.9710 os         1 A11      -0.435900
     20 C7          56.5140    75.2360    35.3200 c          1 A11       0.632100
     21 O7          57.2710    74.6940    36.1120 o          1 A11      -0.545000
     22 C8          55.2170    75.8820    35.7030 c3         1 A11      -0.150100
     23 H3          62.2420    79.9700    30.1140 h1         1 A11       0.057700
     24 H4          62.4890    78.6470    31.2200 h1         1 A11       0.057700
     25 H5          62.4630    81.4430    32.2560 h1         1 A11       0.064700
     26 H6          63.9060    80.8160    31.4770 h1         1 A11       0.064700
     27 H7          59.2370    77.0100    31.2340 h1         1 A11       0.074700
     28 H8          57.9840    78.0440    30.5820 h1         1 A11       0.074700
     29 H9          57.3830    75.7070    31.5670 h1         1 A11       0.097700
     30 H10         55.6900    78.1770    29.7160 hc         1 A11       0.077033
     31 H11         54.0700    77.5600    29.4950 hc         1 A11       0.077033
     32 H12         55.4390    76.6590    28.8880 hc         1 A11       0.077033
     33 H13         57.1450    77.3490    34.0630 h1         1 A11       0.093700
     34 H14         58.5100    76.3040    33.7710 h1         1 A11       0.093700
     35 H15         54.7460    76.2810    34.8290 hc         1 A11       0.078033
     36 H16         55.4040    76.6720    36.4000 hc         1 A11       0.078033
     37 H17         54.5750    75.1540    36.1530 hc         1 A11       0.078033
@<TRIPOS>BOND
     1     1     2 1   
     2     1    12 1   
     3     2     3 2   
     4     2     4 1   
     5     2    10 1   
     6     4     5 1   
     7     5     6 1   
     8     5    23 1   
     9     5    24 1   
    10     6     7 1   
    11     6    25 1   
    12     6    26 1   
    13     7     8 1   
    14     7     9 1   
    15    10    11 1   
    16    12    13 1   
    17    12    27 1   
    18    12    28 1   
    19    13    14 1   
    20    13    18 1   
    21    13    29 1   
    22    14    15 1   
    23    15    16 2   
    24    15    17 1   
    25    17    30 1   
    26    17    31 1   
    27    17    32 1   
    28    18    19 1   
    29    18    33 1   
    30    18    34 1   
    31    19    20 1   
    32    20    21 2   
    33    20    22 1   
    34    22    35 1   
    35    22    36 1   
    36    22    37 1   
@<TRIPOS>SUBSTRUCTURE
     1 A11         1 TEMP              0 ****  ****    0 ROOT
