MODEL 1
REMARK VINA RESULT:    -8.131      0.000      0.000
REMARK INTER + INTRA:         -12.117
REMARK INTER:                 -11.220
REMARK INTRA:                  -0.897
REMARK UNBOUND:                -0.897
REMARK  7 active torsions:
REMARK  status: ('A' for Active; 'I' for Inactive)
REMARK    1  A    between atoms: S_2  and  N_15 
REMARK    2  A    between atoms: O_4  and  C_23 
REMARK    3  A    between atoms: N_12  and  CA_19 
REMARK       I    between atoms: N_12  and  C_24 
REMARK    4  A    between atoms: N_13  and  CA_25 
REMARK       I    between atoms: N_13  and  C_27 
REMARK       I    between atoms: N_14  and  C_27 
REMARK    5  A    between atoms: CA_18  and  C_23 
REMARK    6  A    between atoms: C_24  and  CA_25 
REMARK    7  A    between atoms: CA_25  and  C_26 
ROOT
HETATM    1  CA  MEZ     1      29.662 -62.143   5.304  1.00  0.00     0.211 C 
ENDROOT
BRANCH   1   2
HETATM    2  N   MEZ     1      29.792 -62.120   6.743  1.00  0.00    -0.325 N 
HETATM    3  C   MEZ     1      30.977 -61.770   7.379  1.00  0.00     0.327 C 
HETATM    4  O   MEZ     1      32.003 -61.453   6.773  1.00  0.00    -0.247 OA
HETATM    5  N   MEZ     1      30.902 -61.816   8.791  1.00  0.00    -0.249 N 
HETATM    6  C   MEZ     1      32.098 -61.568   9.595  1.00  0.00     0.159 C 
HETATM    7  C   MEZ     1      29.819 -62.154   9.634  1.00  0.00     0.342 C 
HETATM    8  C   MEZ     1      31.633 -61.428  11.043  1.00  0.00     0.167 C 
HETATM    9  N   MEZ     1      30.292 -62.048  10.980  1.00  0.00    -0.225 N 
HETATM   10  O   MEZ     1      28.680 -62.464   9.319  1.00  0.00    -0.245 OA
HETATM   11  H   MEZ     1      28.978 -62.351   7.304  1.00  0.00     0.165 HD
BRANCH   9  12
HETATM   12  S   MEZ     1      29.339 -62.095  12.373  1.00  0.00     0.232 S 
HETATM   13  O   MEZ     1      28.044 -62.677  12.060  1.00  0.00    -0.206 OA
HETATM   14  O   MEZ     1      30.127 -62.595  13.488  1.00  0.00    -0.206 OA
HETATM   15  C   MEZ     1      29.090 -60.353  12.634  1.00  0.00     0.186 C 
ENDBRANCH   9  12
ENDBRANCH   1   2
BRANCH   1  16
HETATM   16  C   MEZ     1      28.775 -63.322   4.926  1.00  0.00     0.245 C 
HETATM   17  O   MEZ     1      29.215 -64.371   4.455  1.00  0.00    -0.271 OA
HETATM   18  N   MEZ     1      27.426 -63.101   5.212  1.00  0.00    -0.344 N 
HETATM   19  H   MEZ     1      27.169 -62.200   5.608  1.00  0.00     0.163 HD
BRANCH  18  20
HETATM   20  CA  MEZ     1      26.389 -64.103   4.979  1.00  0.00     0.199 A 
HETATM   21  C   MEZ     1      24.929 -63.703   5.238  1.00  0.00     0.160 A 
HETATM   22  S   MEZ     1      24.593 -61.921   5.481  1.00  0.00    -0.135 SA
HETATM   23  N   MEZ     1      24.687 -63.899   3.805  1.00  0.00    -0.219 NA
HETATM   24  C   MEZ     1      23.317 -61.937   4.125  1.00  0.00     0.029 C 
HETATM   25  CA  MEZ     1      23.903 -62.917   3.084  1.00  0.00     0.182 C 
HETATM   26  C   MEZ     1      23.184 -60.526   3.549  1.00  0.00     0.029 C 
HETATM   27  C   MEZ     1      21.982 -62.382   4.737  1.00  0.00     0.029 C 
HETATM   28  C   MEZ     1      25.970 -64.256   3.503  1.00  0.00     0.227 A 
HETATM   29  O   MEZ     1      26.539 -64.466   2.457  1.00  0.00    -0.277 OA
BRANCH  25  30
HETATM   30  C   MEZ     1      22.895 -63.666   2.272  1.00  0.00     0.160 C 
HETATM   31  OXT MEZ     1      22.338 -64.697   2.621  1.00  0.00    -0.649 OA
BRANCH  30  32
HETATM   32  O   MEZ     1      22.679 -63.045   1.087  1.00  0.00    -0.775 OA
HETATM   33  H   MEZ     1      21.902 -63.416   0.616  1.00  0.00     0.167 HD
ENDBRANCH  30  32
ENDBRANCH  25  30
ENDBRANCH  18  20
ENDBRANCH   1  16
BRANCH   1  34
HETATM   34  C   MEZ     1      29.122 -60.839   4.766  1.00  0.00    -0.026 A 
HETATM   35  C   MEZ     1      28.316 -60.033   5.569  1.00  0.00     0.010 A 
HETATM   36  C   MEZ     1      27.818 -58.829   5.072  1.00  0.00     0.001 A 
HETATM   37  C   MEZ     1      28.124 -58.432   3.771  1.00  0.00     0.000 A 
HETATM   38  C   MEZ     1      28.929 -59.239   2.967  1.00  0.00     0.001 A 
HETATM   39  C   MEZ     1      29.428 -60.443   3.464  1.00  0.00     0.010 A 
ENDBRANCH   1  34
TORSDOF 7
ENDMDL
