REMARK  12 active torsions:
REMARK  status: ('A' for Active; 'I' for Inactive)
REMARK    1  A    between atoms: N1_2  and  C31_40 
REMARK    2  A    between atoms: C2_4  and  C3_7 
REMARK       I    between atoms: N2_5  and  C3_7 
REMARK    3  A    between atoms: N2_5  and  C4_10 
REMARK    4  A    between atoms: N3_8  and  C10_19 
REMARK       I    between atoms: N4_11  and  C21_30 
REMARK    5  A    between atoms: N4_11  and  C22_31 
REMARK    6  A    between atoms: C10_19  and  C11_20 
REMARK    7  A    between atoms: C11_20  and  C12_21 
REMARK    8  A    between atoms: C12_21  and  C13_22 
REMARK    9  A    between atoms: C13_22  and  C14_23 
REMARK   10  A    between atoms: C13_22  and  C21_30 
REMARK   11  A    between atoms: C14_23  and  C15_24 
REMARK   12  A    between atoms: C31_40  and  C32_41 
ROOT
HETATM    1  O2  MK1 B 902      -9.758  25.022   5.966  1.00 15.87    -0.221 OA
HETATM    2  C11 MK1 B 902     -10.797  24.090   5.941  1.00 21.68     0.174 C 
ENDROOT
BRANCH   2   3
HETATM    3  C10 MK1 B 902     -11.917  25.131   5.935  1.00 20.86     0.131 C 
BRANCH   3   4
HETATM    4  N3  MK1 B 902     -13.181  24.640   5.423  1.00 28.91    -0.357 N 
HETATM    5  C2  MK1 B 902     -14.409  24.876   6.261  1.00 27.27     0.192 C 
HETATM    6  C1  MK1 B 902     -15.502  24.329   5.364  1.00 30.30     0.282 C 
HETATM    7  N1  MK1 B 902     -15.720  24.866   3.994  1.00 28.25     0.146 N 
HETATM    8  C9  MK1 B 902     -14.560  24.619   3.261  1.00 27.47     0.274 C 
HETATM    9  C8  MK1 B 902     -13.247  24.899   3.963  1.00 26.24     0.133 C 
BRANCH   5  10
HETATM   10  C3  MK1 B 902     -14.409  24.089   7.543  1.00 28.85     0.273 C 
HETATM   11  O1  MK1 B 902     -14.063  22.914   7.547  1.00 29.59    -0.269 OA
HETATM   12  N2  MK1 B 902     -14.807  24.718   8.631  1.00 22.29    -0.240 NA
BRANCH  12  13
HETATM   13  C4  MK1 B 902     -14.855  24.277   9.988  1.00 23.47     0.088 C 
HETATM   14  C5  MK1 B 902     -15.621  25.351  10.783  1.00 27.66     0.025 C 
HETATM   15  C6  MK1 B 902     -13.602  24.069  10.543  1.00 21.71     0.025 C 
HETATM   16  C7  MK1 B 902     -15.636  23.051  10.179  1.00 22.75     0.025 C 
ENDBRANCH  12  13
ENDBRANCH   5  10
BRANCH   7  17
HETATM   17  C31 MK1 B 902     -16.967  24.492   3.316  1.00 36.25     0.278 C 
BRANCH  17  18
HETATM   18  C32 MK1 B 902     -18.334  24.909   3.871  1.00 42.75     0.030 A 
HETATM   19  C33 MK1 B 902     -18.842  26.211   3.754  1.00 47.41     0.097 A 
HETATM   20  N5  MK1 B 902     -20.089  26.662   4.218  1.00 51.38    -0.243 NA
HETATM   21  C34 MK1 B 902     -20.793  25.626   4.830  1.00 50.60     0.099 A 
HETATM   22  C35 MK1 B 902     -20.346  24.310   4.980  1.00 49.34     0.020 A 
HETATM   23  C36 MK1 B 902     -19.095  23.942   4.491  1.00 44.71     0.001 A 
ENDBRANCH  17  18
ENDBRANCH   7  17
ENDBRANCH   3   4
ENDBRANCH   2   3
BRANCH   2  24
HETATM   24  C12 MK1 B 902     -10.560  23.082   7.080  1.00 21.49     0.045 C 
BRANCH  24  25
HETATM   25  C13 MK1 B 902      -9.427  22.050   6.988  1.00 26.89     0.088 C 
BRANCH  25  26
HETATM   26  C14 MK1 B 902      -9.356  21.149   8.234  1.00 28.67     0.036 C 
BRANCH  26  27
HETATM   27  C15 MK1 B 902      -8.267  20.144   8.146  1.00 26.89    -0.022 A 
HETATM   28  C16 MK1 B 902      -6.942  20.492   7.876  1.00 29.22    -0.004 A 
HETATM   29  C17 MK1 B 902      -5.963  19.516   7.767  1.00 29.22    -0.000 A 
HETATM   30  C18 MK1 B 902      -6.327  18.177   7.931  1.00 30.97    -0.000 A 
HETATM   31  C19 MK1 B 902      -7.653  17.825   8.210  1.00 29.25    -0.000 A 
HETATM   32  C20 MK1 B 902      -8.626  18.818   8.317  1.00 29.96    -0.004 A 
ENDBRANCH  26  27
ENDBRANCH  25  26
BRANCH  25  33
HETATM   33  C21 MK1 B 902      -9.553  21.170   5.750  1.00 29.35     0.252 C 
HETATM   34  O3  MK1 B 902     -10.633  20.630   5.466  1.00 32.66    -0.271 OA
HETATM   35  N4  MK1 B 902      -8.417  20.938   5.098  1.00 31.19    -0.233 NA
BRANCH  35  36
HETATM   36  C22 MK1 B 902      -8.308  19.874   4.114  1.00 29.22     0.159 C 
HETATM   37  C23 MK1 B 902      -6.933  19.228   4.124  1.00 28.82     0.183 C 
HETATM   38  O4  MK1 B 902      -5.939  20.191   4.441  1.00 28.32    -0.221 OA
HETATM   39  C24 MK1 B 902      -6.774  18.611   2.753  1.00 32.05     0.061 C 
HETATM   40  C25 MK1 B 902      -7.524  19.414   1.719  1.00 31.29    -0.022 A 
HETATM   41  C26 MK1 B 902      -7.500  19.578   0.354  1.00 32.00    -0.004 A 
HETATM   42  C30 MK1 B 902      -8.496  20.232   2.616  1.00 31.86    -0.001 A 
HETATM   43  C27 MK1 B 902      -8.387  20.496  -0.219  1.00 28.00    -0.000 A 
HETATM   44  C28 MK1 B 902      -9.278  21.229   0.579  1.00 29.01    -0.000 A 
HETATM   45  C29 MK1 B 902      -9.317  21.094   1.960  1.00 27.70    -0.003 A 
ENDBRANCH  35  36
ENDBRANCH  25  33
ENDBRANCH  24  25
ENDBRANCH   2  24
TORSDOF 12
