@<TRIPOS>MOLECULE
*****
   47    49     1     0     0
SMALL
bcc


@<TRIPOS>ATOM
      1 C1           8.7490   -31.5480    -3.9140 c1         1 TOB      -0.539600
      2 N1           9.2040   -33.7230    -5.0680 n8         1 TOB      -0.812600
      3 O1          11.5780   -32.1270    -2.6580 os         1 TOB      -0.256400
      4 C2           9.1620   -30.4890    -4.9550 c2         1 TOB       0.279300
      5 N2           9.0440   -32.6350     1.5400 nv         1 TOB      -0.791200
      6 O2          12.1460   -33.7860    -1.0130 os         1 TOB      -0.365800
      7 C3          10.6840   -30.1850    -4.9510 c2         1 TOB      -0.131900
      8 N3           7.5450   -30.0380    -0.7540 n8         1 TOB      -0.703400
      9 O3          10.1820   -36.8400    -1.0050 oh         1 TOB      -0.352600
     10 C4          11.5590   -31.4610    -5.0010 c2         1 TOB       0.162100
     11 N4          12.0990   -26.9060    -3.2700 n8         1 TOB      -0.769600
     12 O4          10.4300   -35.1730     1.8270 oh         1 TOB      -0.479100
     13 C5          11.1360   -32.5350    -3.9710 c2         1 TOB      -0.118900
     14 N5           8.6460   -30.7920    -6.3010 n8         1 TOB      -0.817600
     15 O5          11.1550   -30.9890    -0.1380 oh         1 TOB      -0.488100
     16 C6           9.6120   -32.8240    -3.9760 c2         1 TOB       0.112300
     17 O6          11.5810   -32.0240    -6.3110 oh         1 TOB      -0.500100
     18 C7          11.1100   -32.9700    -1.5910 c2         1 TOB       0.675000
     19 O7          11.0710   -29.4390    -3.7730 os         1 TOB      -0.225200
     20 C8          10.4130   -32.1580    -0.4750 c2         1 TOB      -0.120200
     21 O8           9.8800   -28.6550    -1.8920 os         1 TOB      -0.201200
     22 C9          10.2740   -32.9950     0.8100 c2         1 TOB       0.266600
     23 O9           7.9590   -25.6400    -1.1910 oh         1 TOB      -0.461100
     24 C10         10.3750   -34.5180     0.5640 c2         1 TOB       0.088800
     25 C11         11.6040   -34.9280    -0.3030 c2         1 TOB       0.119700
     26 C12         11.2850   -36.0080    -1.3650 c1         1 TOB       0.003600
     27 C13         10.1340   -28.4540    -3.2980 c2         1 TOB       0.283200
     28 C14         10.6500   -27.0110    -3.5120 c2         1 TOB       0.042300
     29 C15          9.8990   -26.0100    -2.6040 c1         1 TOB      -0.381600
     30 C16          8.5580   -26.5720    -2.0860 c2         1 TOB       0.196400
     31 C17          8.7240   -27.9430    -1.3850 c2         1 TOB      -0.013600
     32 C18          7.4700   -28.8160    -1.5730 c1         1 TOB      -0.025500
     33 H8           9.3220   -33.2550    -5.9650 hn         1 TOB       0.364300
     34 H9           9.7880   -34.5560    -5.0750 hn         1 TOB       0.364300
     35 H17          9.4510   -36.2590    -0.7310 ho         1 TOB       0.417000
     36 H18         10.3710   -34.4710     2.5010 ho         1 TOB       0.485000
     37 H19          9.0250   -31.6320     1.7100 hn         1 TOB       0.472300
     38 H20          8.2280   -32.8580     0.9740 hn         1 TOB       0.472300
     39 H21         10.7160   -30.5800     0.6260 ho         1 TOB       0.476000
     40 H22         11.2430   -32.9330    -6.2300 ho         1 TOB       0.433000
     41 H31          7.6810   -29.7860     0.2220 hn         1 TOB       0.417800
     42 H32          6.6660   -30.5470    -0.8140 hn         1 TOB       0.417800
     43 H33          7.9590   -24.7720    -1.6280 ho         1 TOB       0.444000
     44 H34         12.3950   -25.9340    -3.3110 hn         1 TOB       0.374800
     45 H35         12.3150   -27.2580    -2.3390 hn         1 TOB       0.374800
     46 H36          7.6300   -30.8560    -6.2790 hn         1 TOB       0.405800
     47 H37          8.8910   -30.0430    -6.9450 hn         1 TOB       0.405800
@<TRIPOS>BOND
     1    47    14 1   
     2    46    14 1   
     3    14     4 1   
     4    17    40 1   
     5    17    10 1   
     6    33     2 1   
     7     2    34 1   
     8     2    16 1   
     9    10     7 1   
    10    10    13 1   
    11     4     7 1   
    12     4     1 1   
    13     7    19 1   
    14    44    11 1   
    15     1    16 1   
    16    16    13 1   
    17    13     3 1   
    18    19    27 1   
    19    28    11 1   
    20    28    27 1   
    21    28    29 1   
    22    11    45 1   
    23    27    21 1   
    24     3    18 1   
    25    29    30 1   
    26    30    31 1   
    27    30    23 1   
    28    21    31 1   
    29    18     6 1   
    30    18    20 1   
    31    43    23 1   
    32    32    31 1   
    33    32     8 1   
    34     6    25 1   
    35    26     9 1   
    36    26    25 1   
    37    35     9 1   
    38    42     8 1   
    39    20    15 1   
    40    20    22 1   
    41     8    41 1   
    42    15    39 1   
    43    25    24 1   
    44    24    22 1   
    45    24    12 1   
    46    22     5 1   
    47    37     5 1   
    48    38     5 1   
    49    12    36 1   
@<TRIPOS>SUBSTRUCTURE
     1 TOB         1 TEMP              0 ****  ****    0 ROOT
