@<TRIPOS>MOLECULE
*****
 58 61 0 0 0
SMALL
GASTEIGER

@<TRIPOS>ATOM
      1  C1       -28.1532   -8.4969   -6.5854 C.3     1  LEV1       -0.0473
      2  N1       -28.5760   -6.0605   -6.6224 N.3     1  LEV1       -0.2912
      3  O1       -27.6669   -6.9886   -9.2158 O.3     1  LEV1       -0.3718
      4  C2       -27.5144   -7.1019   -6.7461 C.3     1  LEV1        0.0314
      5  N2       -29.0386   -6.2210  -11.6249 N.3     1  LEV1       -0.2920
      6  O2       -31.2652   -2.8190   -6.3243 O.3     1  LEV1       -0.3910
      7  C3       -26.7471   -7.0007   -8.0897 C.3     1  LEV1        0.0635
      8  N3       -29.5915   -7.4574  -14.2004 N.3     1  LEV1       -0.3029
      9  O3       -30.7575   -3.3275   -3.2184 O.3     1  LEV1       -0.3668
     10  C4       -28.8966   -6.2127   -9.0873 C.3     1  LEV1        0.0927
     11  O4       -28.9634   -2.1885   -4.2290 O.3     1  LEV1       -0.3668
     12  C5       -28.8254   -5.2712   -7.8578 C.3     1  LEV1        0.0438
     13  C6       -28.4357   -5.2010   -5.4210 C.3     1  LEV1        0.0094
     14  C7       -29.7077   -4.3489   -5.1938 C.3     1  LEV1        0.0487
     15  C8       -30.0332   -3.5288   -6.4788 C.3     1  LEV1        0.0682
     16  C9       -30.1325   -4.4545   -7.7178 C.3     1  LEV1        0.0062
     17  C10      -30.3813   -3.6404   -9.0155 C.3     1  LEV1       -0.0135
     18  C11      -30.4333   -4.5534  -10.2603 C.3     1  LEV1        0.1192
     19  C12      -29.1267   -5.3904  -10.3828 C.3     1  LEV1        0.0693
     20  C13      -29.9656   -7.3828  -11.7227 C.3     1  LEV1        0.0122
     21  C14      -29.6094   -8.2546  -12.9482 C.3     1  LEV1        0.0114
     22  C15      -28.6605   -6.3074  -14.0889 C.3     1  LEV1        0.0114
     23  C16      -29.0021   -5.4158  -12.8736 C.3     1  LEV1        0.0122
     24  C17      -30.9426   -7.0798  -14.6771 C.3     1  LEV1       -0.0127
     25  C18      -29.5169   -3.4742   -3.9174 C.3     1  LEV1        0.1595
     26  F1       -31.5266   -5.3358  -10.1769 F       1  LEV1       -0.2438
     27  H01      -28.8922   -8.6843   -7.3680 H       1  LEV1        0.0245
     28  H02      -27.3901   -9.2764   -6.6402 H       1  LEV1        0.0245
     29  H03      -28.6527   -8.5778   -5.6172 H       1  LEV1        0.0245
     30  H04      -26.7849   -6.9783   -5.9402 H       1  LEV1        0.0482
     31  H05      -31.3720   -2.2550   -7.1100 H       1  LEV1        0.2098
     32  H06      -26.1684   -6.0730   -8.1084 H       1  LEV1        0.0575
     33  H07      -26.0579   -7.8417   -8.2050 H       1  LEV1        0.0575
     34  H08      -30.9800   -2.3870   -3.1100 H       1  LEV1        0.2125
     35  H09      -29.7236   -6.9130   -8.9402 H       1  LEV1        0.0628
     36  H10      -29.0140   -1.6030   -3.4540 H       1  LEV1        0.2125
     37  H11      -27.9951   -4.5732   -8.0053 H       1  LEV1        0.0492
     38  H12      -27.5678   -4.5452   -5.5372 H       1  LEV1        0.0432
     39  H13      -28.2786   -5.8336   -4.5425 H       1  LEV1        0.0432
     40  H14      -30.5345   -5.0427   -5.0141 H       1  LEV1        0.0387
     41  H15      -29.2300   -2.8072   -6.6530 H       1  LEV1        0.0601
     42  H16      -30.9670   -5.1467   -7.5700 H       1  LEV1        0.0343
     43  H17      -29.5872   -2.9005   -9.1448 H       1  LEV1        0.0297
     44  H18      -31.3237   -3.0927   -8.9427 H       1  LEV1        0.0297
     45  H19      -30.5577   -3.9262  -11.1460 H       1  LEV1        0.0668
     46  H20      -28.3014   -4.6747  -10.4382 H       1  LEV1        0.0517
     47  H21      -30.9976   -7.0386  -11.8176 H       1  LEV1        0.0439
     48  H22      -29.8883   -8.0047  -10.8280 H       1  LEV1        0.0439
     49  H23      -28.6169   -8.6864  -12.7900 H       1  LEV1        0.0439
     50  H24      -30.3256   -9.0760  -13.0377 H       1  LEV1        0.0439
     51  H25      -28.6905   -5.7115  -15.0054 H       1  LEV1        0.0439
     52  H26      -27.6427   -6.6886  -13.9656 H       1  LEV1        0.0439
     53  H27      -28.2408   -4.6358  -12.7863 H       1  LEV1        0.0439
     54  H28      -29.9708   -4.9371  -13.0383 H       1  LEV1        0.0439
     55  H29      -31.4400   -6.4203  -13.9613 H       1  LEV1        0.0391
     56  H30      -30.8656   -6.5645  -15.6383 H       1  LEV1        0.0391
     57  H31      -31.5516   -7.9779  -14.8115 H       1  LEV1        0.0391
     58  H32      -28.8285   -3.9675   -3.2140 H       1  LEV1        0.0909
@<TRIPOS>BOND
     1    56    24    1
     2    57    24    1
     3    51    22    1
     4    24     8    1
     5    24    55    1
     6     8    22    1
     7     8    21    1
     8    22    52    1
     9    22    23    1
    10    54    23    1
    11    50    21    1
    12    21    49    1
    13    21    20    1
    14    23    53    1
    15    23     5    1
    16    47    20    1
    17    20     5    1
    18    20    48    1
    19     5    19    1
    20    45    18    1
    21    46    19    1
    22    19    18    1
    23    19    10    1
    24    18    26    1
    25    18    17    1
    26     3    10    1
    27     3     7    1
    28    43    17    1
    29    10    35    1
    30    10    12    1
    31    17    44    1
    32    17    16    1
    33    33     7    1
    34    32     7    1
    35     7     4    1
    36    37    12    1
    37    12    16    1
    38    12     2    1
    39    16    42    1
    40    16    15    1
    41    31     6    1
    42    27     1    1
    43    28     1    1
    44     4     2    1
    45     4     1    1
    46     4    30    1
    47     2    13    1
    48    41    15    1
    49     1    29    1
    50    15     6    1
    51    15    14    1
    52    38    13    1
    53    13    14    1
    54    13    39    1
    55    14    40    1
    56    14    25    1
    57    11    25    1
    58    11    36    1
    59    25    58    1
    60    25     9    1
    61     9    34    1
