@<TRIPOS>MOLECULE
*****
   85    87     1     0     0
SMALL
bcc


@<TRIPOS>ATOM
      1 C1           9.8470   -36.2240    -7.5420 c3         1 STM      -0.098100
      2 N1           9.5780   -29.0490    -1.7830 n7         1 STM      -0.847200
      3 O1           8.8050   -34.1180    -6.9160 os         1 STM      -0.421600
      4 C2           9.9310   -34.6840    -7.6190 c5         1 STM       0.111100
      5 N2          11.2580   -27.2740    -1.7520 n8         1 STM      -0.933300
      6 O2           9.5980   -31.8720    -6.7680 os         1 STM      -0.462600
      7 C3           9.8640   -34.0660    -9.0460 c5         1 STM       0.090800
      8 N3          11.6960   -29.3370    -0.6060 n8         1 STM      -0.933300
      9 O3           9.7060   -33.3050    -4.2270 oh         1 STM      -0.613800
     10 C4           8.8900   -32.8650    -8.8790 c5         1 STM       0.084100
     11 N4           8.7910   -29.1970    -6.7230 n7         1 STM      -0.811200
     12 O4          10.5240   -31.8000    -1.9690 oh         1 STM      -0.605800
     13 C5           8.6230   -32.7660    -7.3680 c5         1 STM       0.303900
     14 N5           8.6240   -27.4930    -8.4050 n8         1 STM      -0.967300
     15 O5           9.4760   -27.6650    -4.2870 oh         1 STM      -0.599800
     16 C6           9.2270   -31.2750    -5.4920 c6         1 STM       0.109100
     17 N6          10.6670   -28.7200    -8.1740 n8         1 STM      -0.967300
     18 O6           7.6110   -33.0840    -9.5280 os         1 STM      -0.415600
     19 C7           9.5430   -29.7640    -5.5750 c6         1 STM       0.188500
     20 N7           7.1570   -33.4450   -12.1840 n7         1 STM      -0.821200
     21 O7           5.7060   -31.7080   -10.0210 os         1 STM      -0.438600
     22 C8           9.1820   -29.0660    -4.2340 c6         1 STM       0.128100
     23 O8           5.7450   -28.1170    -9.4560 oh         1 STM      -0.630800
     24 C9           9.9790   -29.6950    -3.0630 c6         1 STM       0.140500
     25 O9           5.2220   -28.9650   -12.4090 oh         1 STM      -0.581800
     26 C10          9.7110   -31.2210    -2.9940 c6         1 STM       0.158100
     27 O10          7.1320   -30.5680   -13.6980 oh         1 STM      -0.583800
     28 C11         10.0350   -31.9170    -4.3370 c6         1 STM       0.083100
     29 O11         11.6820   -32.2990    -9.1070 oh         1 STM      -0.619800
     30 C12         10.6510   -28.3850    -1.0040 c3         1 STM       0.615900
     31 O12          9.3760   -35.0130   -10.0250 oh         1 STM      -0.575800
     32 C13          9.5250   -28.1430    -7.4460 c3         1 STM       0.617900
     33 C14          7.1210   -31.9190   -10.2310 c6         1 STM       0.328900
     34 C15          7.3830   -32.0440   -11.7550 c6         1 STM       0.151500
     35 C16          6.4580   -31.0670   -12.5390 c6         1 STM       0.105100
     36 C17          6.0330   -29.8700   -11.6520 c6         1 STM       0.076100
     37 C18          5.2610   -30.3670   -10.3860 c6         1 STM       0.120100
     38 C19          5.4510   -29.4750    -9.1290 c3         1 STM       0.112400
     39 C20          7.7390   -33.7740   -13.4990 c3         1 STM       0.149100
     40 C21         11.2800   -33.6190    -9.5260 c3         1 STM       0.142400
     41 H01          8.8870   -36.5840    -7.9180 hc         1 STM       0.052700
     42 H02         10.6490   -36.6830    -8.1240 hc         1 STM       0.052700
     43 H03          9.9460   -36.5520    -6.5050 hc         1 STM       0.052700
     44 H04          8.8030   -28.4080    -1.9430 hn         1 STM       0.371800
     45 H05         10.8390   -34.3430    -7.1120 h1         1 STM       0.057700
     46 H06         10.5680   -26.5490    -1.9350 hn         1 STM       0.361300
     47 H07         11.9980   -26.8470    -1.1970 hn         1 STM       0.361300
     48 H08         11.2810   -30.1040    -0.0790 hn         1 STM       0.361300
     49 H09         12.1220   -29.7520    -1.4330 hn         1 STM       0.361300
     50 H10          9.6700   -33.5520    -3.2870 ho         1 STM       0.431000
     51 H11          9.3340   -31.9410    -9.2530 h1         1 STM       0.108700
     52 H12          8.5840   -29.9480    -7.3770 hn         1 STM       0.374800
     53 H13         10.7070   -32.7230    -2.2080 ho         1 STM       0.422000
     54 H14          7.6020   -32.4190    -7.1450 h2         1 STM       0.125700
     55 H15          9.1100   -26.7380    -8.8870 hn         1 STM       0.355800
     56 H16          8.3190   -28.1560    -9.1140 hn         1 STM       0.355800
     57 H17          9.4900   -27.3230    -3.3680 ho         1 STM       0.414000
     58 H18          8.1560   -31.4130    -5.3140 h1         1 STM       0.074700
     59 H19         10.3510   -29.4070    -8.8550 hn         1 STM       0.355800
     60 H20         11.1710   -27.9950    -8.6810 hn         1 STM       0.355800
     61 H21         10.6180   -29.6610    -5.7500 h1         1 STM       0.078700
     62 H22          7.5590   -34.0640   -11.4790 hn         1 STM       0.382800
     63 H23          8.1120   -29.1910    -4.0450 h1         1 STM       0.048700
     64 H24          6.3760   -27.7770    -8.7930 ho         1 STM       0.434000
     65 H25         11.0470   -29.5380    -3.2460 h1         1 STM       0.065700
     66 H26          4.9800   -29.3870   -13.2530 ho         1 STM       0.409000
     67 H27          8.6570   -31.3890    -2.7500 h1         1 STM       0.059700
     68 H28          7.4300   -29.6640   -13.4900 ho         1 STM       0.402000
     69 H29         11.1040   -31.8190    -4.5480 h1         1 STM       0.063700
     70 H30         11.3710   -32.0900    -8.2040 ho         1 STM       0.427000
     71 H31         10.2060   -27.9780    -0.0880 h3         1 STM       0.078700
     72 H32          8.8500   -35.7230    -9.6000 ho         1 STM       0.425000
     73 H33          9.8850   -27.3930    -6.7320 h3         1 STM       0.109700
     74 H34          7.6310   -31.0310    -9.8260 h2         1 STM       0.077700
     75 H35          8.4310   -31.7820   -11.9250 h1         1 STM       0.038700
     76 H36          5.5560   -31.6050   -12.8490 h1         1 STM       0.105700
     77 H37          6.9380   -29.3420   -11.3380 h1         1 STM       0.093700
     78 H38          4.1930   -30.4260   -10.6170 h1         1 STM       0.078700
     79 H39          4.5400   -29.5090    -8.5260 h1         1 STM       0.045200
     80 H40          6.2710   -29.8630    -8.5200 h1         1 STM       0.045200
     81 H41          8.8190   -33.6070   -13.4820 h1         1 STM       0.036033
     82 H42          7.5480   -34.8270   -13.7240 h1         1 STM       0.036033
     83 H43          7.2880   -33.1600   -14.2820 h1         1 STM       0.036033
     84 H44         11.3010   -33.6350   -10.6200 h1         1 STM       0.063700
     85 H45         12.0210   -34.3440    -9.1760 h1         1 STM       0.063700
@<TRIPOS>BOND
     1    83    39 1   
     2    27    68 1   
     3    27    35 1   
     4    82    39 1   
     5    66    25 1   
     6    39    81 1   
     7    39    20 1   
     8    76    35 1   
     9    35    36 1   
    10    35    34 1   
    11    25    36 1   
    12    20    34 1   
    13    20    62 1   
    14    75    34 1   
    15    36    77 1   
    16    36    37 1   
    17    34    33 1   
    18    78    37 1   
    19    37    21 1   
    20    37    38 1   
    21    84    40 1   
    22    33    21 1   
    23    33    74 1   
    24    33    18 1   
    25    31    72 1   
    26    31     7 1   
    27    23    38 1   
    28    23    64 1   
    29    60    17 1   
    30    56    14 1   
    31    18    10 1   
    32    40    29 1   
    33    40     7 1   
    34    40    85 1   
    35    38    79 1   
    36    38    80 1   
    37    51    10 1   
    38    29    70 1   
    39     7    10 1   
    40     7     4 1   
    41    10    13 1   
    42    55    14 1   
    43    17    59 1   
    44    17    32 1   
    45    14    32 1   
    46    42     1 1   
    47    41     1 1   
    48    32    73 1   
    49    32    11 1   
    50     1     4 1   
    51     1    43 1   
    52     4    45 1   
    53     4     3 1   
    54    13    54 1   
    55    13     3 1   
    56    13     6 1   
    57    52    11 1   
    58    11    19 1   
    59     6    16 1   
    60    61    19 1   
    61    19    16 1   
    62    19    22 1   
    63    16    58 1   
    64    16    28 1   
    65    69    28 1   
    66    28     9 1   
    67    28    26 1   
    68    15    22 1   
    69    15    57 1   
    70     9    50 1   
    71    22    63 1   
    72    22    24 1   
    73    65    24 1   
    74    24    26 1   
    75    24     2 1   
    76    26    67 1   
    77    26    12 1   
    78    46     5 1   
    79    53    12 1   
    80     5    47 1   
    81     5    30 1   
    82    44     2 1   
    83     2    30 1   
    84    49     8 1   
    85    30     8 1   
    86    30    71 1   
    87     8    48 1   
@<TRIPOS>SUBSTRUCTURE
     1 STM         1 TEMP              0 ****  ****    0 ROOT
