MODEL 1
REMARK VINA RESULT:   -10.816      0.000      0.000
REMARK INTER + INTRA:         -17.890
REMARK INTER:                 -15.559
REMARK INTRA:                  -2.332
REMARK UNBOUND:                -2.332
REMARK  9 active torsions:
REMARK  status: ('A' for Active; 'I' for Inactive)
REMARK    1  A    between atoms: O6_12  and  C10_19 
REMARK    2  A    between atoms: O7_14  and  C16_29 
REMARK    3  A    between atoms: O9_18  and  C27_40 
REMARK    4  A    between atoms: O10_20  and  C28_41 
REMARK    5  A    between atoms: O12_24  and  C39_52 
REMARK    6  A    between atoms: O13_26  and  C40_53 
REMARK    7  A    between atoms: C34_47  and  C35_48 
REMARK    8  A    between atoms: C35_48  and  C36_49 
REMARK    9  A    between atoms: C36_49  and  C37_50 
ROOT
HETATM    1  C1  RAP A 108       4.746   8.389  12.969  1.00  5.98     0.292 C 
HETATM    2  O1  RAP A 108       4.415   9.476  13.823  1.00  9.08    -0.302 OA
HETATM    3  C2  RAP A 108       4.255   6.967  13.239  1.00  6.42     0.171 C 
HETATM    4  O2  RAP A 108       5.474   8.611  12.005  1.00 14.08    -0.262 OA
HETATM    5  C3  RAP A 108       3.765   6.303  11.961  1.00  5.50     0.033 C 
HETATM    6  O3  RAP A 108       4.637   6.082  15.739  1.00 10.38    -0.264 OA
HETATM    7  C4  RAP A 108       2.406   6.805  11.494  1.00  4.49     0.004 C 
HETATM    8  O4  RAP A 108       1.856   5.243  16.579  1.00 10.60    -0.281 OA
HETATM    9  C5  RAP A 108       1.421   6.634  12.637  1.00  4.19     0.024 C 
HETATM   10  O5  RAP A 108       1.437   8.371  16.792  1.00 10.76    -0.332 OA
HETATM   11  C6  RAP A 108       1.879   7.380  13.852  1.00  3.25     0.105 C 
HETATM   12  N7  RAP A 108       3.192   6.842  14.242  1.00  8.46    -0.307 N 
HETATM   13  C8  RAP A 108       3.476   6.429  15.487  1.00 10.06     0.297 C 
HETATM   14  O8  RAP A 108       3.918  17.649   8.948  1.00 18.31    -0.293 OA
HETATM   15  C9  RAP A 108       2.496   6.298  16.496  1.00 11.13     0.279 C 
HETATM   16  C10 RAP A 108       2.197   7.422  17.504  1.00 16.59     0.246 C 
HETATM   17  C11 RAP A 108       3.499   8.121  18.073  1.00 10.40     0.059 C 
HETATM   18  O11 RAP A 108       2.424  10.668  11.978  1.00  9.49    -0.296 OA
HETATM   19  C12 RAP A 108       3.152   9.427  18.823  1.00 12.17     0.008 C 
HETATM   20  C13 RAP A 108       2.232  10.298  17.979  1.00 12.80     0.030 C 
HETATM   21  C14 RAP A 108       1.037   9.543  17.406  1.00 10.37     0.121 C 
HETATM   22  C15 RAP A 108       0.396  10.363  16.301  1.00  5.94     0.064 C 
HETATM   23  C16 RAP A 108      -0.341  11.628  16.726  1.00  9.79     0.136 C 
HETATM   24  C17 RAP A 108      -0.899  12.369  15.530  1.00 15.52    -0.017 C 
HETATM   25  C18 RAP A 108      -0.398  13.561  15.235  1.00 14.38    -0.006 C 
HETATM   26  C19 RAP A 108      -0.815  14.387  14.093  1.00  9.73    -0.001 C 
HETATM   27  C20 RAP A 108      -0.274  15.587  13.934  1.00 10.26    -0.000 C 
HETATM   28  C21 RAP A 108      -0.581  16.413  12.752  1.00 11.40    -0.005 C 
HETATM   29  C22 RAP A 108       0.097  17.512  12.477  1.00 17.77    -0.026 C 
HETATM   30  C23 RAP A 108      -0.099  18.338  11.225  1.00 15.64     0.022 C 
HETATM   31  C24 RAP A 108       1.256  18.426  10.544  1.00 14.68     0.012 C 
HETATM   32  C25 RAP A 108       1.983  17.121  10.273  1.00 11.87     0.061 C 
HETATM   33  C26 RAP A 108       3.470  17.365  10.056  1.00 11.65     0.180 C 
HETATM   34  C27 RAP A 108       4.373  17.227  11.277  1.00  8.13     0.203 C 
HETATM   35  C28 RAP A 108       4.802  15.754  11.572  1.00 10.80     0.163 C 
HETATM   36  C29 RAP A 108       3.739  14.942  12.336  1.00  9.60    -0.019 C 
HETATM   37  C30 RAP A 108       3.051  13.944  11.783  1.00  8.55    -0.025 C 
HETATM   38  C31 RAP A 108       1.999  13.015  12.406  1.00  8.43     0.079 C 
HETATM   39  C32 RAP A 108       2.627  11.652  12.696  1.00 10.69     0.157 C 
HETATM   40  C33 RAP A 108       3.566  11.599  13.896  1.00  6.51     0.095 C 
HETATM   41  C34 RAP A 108       4.814  10.787  13.617  1.00  9.62     0.132 C 
HETATM   42  C43 RAP A 108       4.412   7.211  18.948  1.00 11.25     0.005 C 
HETATM   43  C44 RAP A 108      -2.040  11.661  14.777  1.00 14.40     0.029 C 
HETATM   44  C45 RAP A 108      -0.623  19.727  11.563  1.00  9.23     0.005 C 
HETATM   45  C46 RAP A 108       1.373  16.371   9.086  1.00 15.99     0.008 C 
HETATM   46  C47 RAP A 108       3.528  15.386  13.771  1.00 14.60     0.029 C 
HETATM   47  C48 RAP A 108       0.835  12.849  11.416  1.00  9.37     0.013 C 
ENDROOT
BRANCH  41  48
HETATM   48  C35 RAP A 108       6.046  10.998  14.518  1.00  9.58     0.028 C 
HETATM   49  C49 RAP A 108       5.680  11.079  15.972  1.00  8.29     0.003 C 
BRANCH  48  50
HETATM   50  C36 RAP A 108       6.859  12.223  14.103  1.00 10.31     0.003 C 
BRANCH  50  51
HETATM   51  C37 RAP A 108       7.469  12.218  12.699  1.00 22.90     0.003 C 
HETATM   52  C38 RAP A 108       7.785  13.652  12.258  1.00 14.17     0.032 C 
HETATM   53  C39 RAP A 108       8.290  13.736  10.816  1.00 34.20     0.142 C 
HETATM   54  C40 RAP A 108       9.503  12.763  10.616  1.00 38.24     0.138 C 
HETATM   55  C41 RAP A 108       9.212  11.324  11.088  1.00 16.32     0.032 C 
HETATM   56  C42 RAP A 108       8.690  11.316  12.518  1.00 14.05     0.003 C 
BRANCH  53  57
HETATM   57  O12 RAP A 108       8.690  15.066  10.610  1.00 30.82    -0.352 OA
HETATM   58  C52 RAP A 108       9.659  15.566  11.465  1.00 28.14     0.174 C 
ENDBRANCH  53  57
BRANCH  54  59
HETATM   59  O13 RAP A 108       9.858  12.737   9.235  1.00 28.84    -0.382 OA
HETATM   60  HO3 RAP A 108      10.802  12.551   9.145  1.00 13.32     0.210 HD
ENDBRANCH  54  59
ENDBRANCH  50  51
ENDBRANCH  48  50
ENDBRANCH  41  48
BRANCH  35  61
HETATM   61  O10 RAP A 108       5.082  15.126  10.314  1.00 12.16    -0.378 OA
HETATM   62  HO1 RAP A 108       4.714  15.632   9.574  1.00 13.32     0.211 HD
ENDBRANCH  35  61
BRANCH  16  63
HETATM   63  O6  RAP A 108       1.450   6.875  18.595  1.00 14.16    -0.358 OA
HETATM   64  HO6 RAP A 108       1.755   7.294  19.405  1.00 13.32     0.213 HD
ENDBRANCH  16  63
BRANCH  34  65
HETATM   65  O9  RAP A 108       5.551  17.953  11.049  1.00 23.09    -0.344 OA
HETATM   66  C51 RAP A 108       6.531  17.822  12.019  1.00 19.04     0.175 C 
ENDBRANCH  34  65
BRANCH  23  67
HETATM   67  O7  RAP A 108      -1.386  11.249  17.566  1.00 20.17    -0.350 OA
HETATM   68  C50 RAP A 108      -1.555  12.009  18.720  1.00 28.36     0.175 C 
ENDBRANCH  23  67
TORSDOF 9
ENDMDL
MODEL 2
REMARK VINA RESULT:   -10.058      1.691      2.200
REMARK INTER + INTRA:         -16.800
REMARK INTER:                 -14.896
REMARK INTRA:                  -1.903
REMARK UNBOUND:                -2.332
REMARK  9 active torsions:
REMARK  status: ('A' for Active; 'I' for Inactive)
REMARK    1  A    between atoms: O6_12  and  C10_19 
REMARK    2  A    between atoms: O7_14  and  C16_29 
REMARK    3  A    between atoms: O9_18  and  C27_40 
REMARK    4  A    between atoms: O10_20  and  C28_41 
REMARK    5  A    between atoms: O12_24  and  C39_52 
REMARK    6  A    between atoms: O13_26  and  C40_53 
REMARK    7  A    between atoms: C34_47  and  C35_48 
REMARK    8  A    between atoms: C35_48  and  C36_49 
REMARK    9  A    between atoms: C36_49  and  C37_50 
ROOT
HETATM    1  C1  RAP A 108       4.775   8.358  12.890  1.00  5.98     0.292 C 
HETATM    2  O1  RAP A 108       4.473   9.436  13.766  1.00  9.08    -0.302 OA
HETATM    3  C2  RAP A 108       4.265   6.939  13.142  1.00  6.42     0.171 C 
HETATM    4  O2  RAP A 108       5.497   8.585  11.921  1.00 14.08    -0.262 OA
HETATM    5  C3  RAP A 108       3.749   6.306  11.858  1.00  5.50     0.033 C 
HETATM    6  O3  RAP A 108       4.660   6.006  15.622  1.00 10.38    -0.264 OA
HETATM    7  C4  RAP A 108       2.394   6.838  11.416  1.00  4.49     0.004 C 
HETATM    8  O4  RAP A 108       1.874   5.198  16.479  1.00 10.60    -0.281 OA
HETATM    9  C5  RAP A 108       1.419   6.663  12.567  1.00  4.19     0.024 C 
HETATM   10  O5  RAP A 108       1.510   8.328  16.750  1.00 10.76    -0.332 OA
HETATM   11  C6  RAP A 108       1.902   7.381  13.789  1.00  3.25     0.105 C 
HETATM   12  N7  RAP A 108       3.211   6.815  14.155  1.00  8.46    -0.307 N 
HETATM   13  C8  RAP A 108       3.502   6.376  15.389  1.00 10.06     0.297 C 
HETATM   14  O8  RAP A 108       4.056  17.698   9.037  1.00 18.31    -0.293 OA
HETATM   15  C9  RAP A 108       2.532   6.244  16.406  1.00 11.13     0.279 C 
HETATM   16  C10 RAP A 108       2.262   7.355  17.437  1.00 16.59     0.246 C 
HETATM   17  C11 RAP A 108       3.582   8.022  18.003  1.00 10.40     0.059 C 
HETATM   18  O11 RAP A 108       2.480  10.691  11.965  1.00  9.49    -0.296 OA
HETATM   19  C12 RAP A 108       3.265   9.321  18.779  1.00 12.17     0.008 C 
HETATM   20  C13 RAP A 108       2.351  10.221  17.960  1.00 12.80     0.030 C 
HETATM   21  C14 RAP A 108       1.136   9.496  17.389  1.00 10.37     0.121 C 
HETATM   22  C15 RAP A 108       0.497  10.346  16.305  1.00  5.94     0.064 C 
HETATM   23  C16 RAP A 108      -0.214  11.614  16.760  1.00  9.79     0.136 C 
HETATM   24  C17 RAP A 108      -0.774  12.385  15.583  1.00 15.52    -0.017 C 
HETATM   25  C18 RAP A 108      -0.256  13.574  15.303  1.00 14.38    -0.006 C 
HETATM   26  C19 RAP A 108      -0.672  14.426  14.180  1.00  9.73    -0.001 C 
HETATM   27  C20 RAP A 108      -0.114  15.619  14.035  1.00 10.26    -0.000 C 
HETATM   28  C21 RAP A 108      -0.420  16.471  12.871  1.00 11.40    -0.005 C 
HETATM   29  C22 RAP A 108       0.273  17.563  12.607  1.00 17.77    -0.026 C 
HETATM   30  C23 RAP A 108       0.077  18.414  11.371  1.00 15.64     0.022 C 
HETATM   31  C24 RAP A 108       1.425  18.491  10.677  1.00 14.68     0.012 C 
HETATM   32  C25 RAP A 108       2.127  17.179  10.375  1.00 11.87     0.061 C 
HETATM   33  C26 RAP A 108       3.616  17.403  10.145  1.00 11.65     0.180 C 
HETATM   34  C27 RAP A 108       4.529  17.228  11.353  1.00  8.13     0.203 C 
HETATM   35  C28 RAP A 108       4.938  15.744  11.618  1.00 10.80     0.163 C 
HETATM   36  C29 RAP A 108       3.870  14.937  12.380  1.00  9.60    -0.019 C 
HETATM   37  C30 RAP A 108       3.160  13.960  11.818  1.00  8.55    -0.025 C 
HETATM   38  C31 RAP A 108       2.099  13.037  12.437  1.00  8.43     0.079 C 
HETATM   39  C32 RAP A 108       2.708  11.659  12.697  1.00 10.69     0.157 C 
HETATM   40  C33 RAP A 108       3.659  11.570  13.885  1.00  6.51     0.095 C 
HETATM   41  C34 RAP A 108       4.890  10.743  13.578  1.00  9.62     0.132 C 
HETATM   42  C43 RAP A 108       4.490   7.083  18.852  1.00 11.25     0.005 C 
HETATM   43  C44 RAP A 108      -1.934  11.709  14.832  1.00 14.40     0.029 C 
HETATM   44  C45 RAP A 108      -0.420  19.805  11.739  1.00  9.23     0.005 C 
HETATM   45  C46 RAP A 108       1.492  16.460   9.182  1.00 15.99     0.008 C 
HETATM   46  C47 RAP A 108       3.683  15.359  13.825  1.00 14.60     0.029 C 
HETATM   47  C48 RAP A 108       0.922  12.907  11.459  1.00  9.37     0.013 C 
ENDROOT
BRANCH  41  48
HETATM   48  C35 RAP A 108       6.136  10.919  14.468  1.00  9.58     0.028 C 
HETATM   49  C49 RAP A 108       5.778  11.184  15.902  1.00  8.29     0.003 C 
BRANCH  48  50
HETATM   50  C36 RAP A 108       7.071  12.006  13.941  1.00 10.31     0.003 C 
BRANCH  50  51
HETATM   51  C37 RAP A 108       7.576  13.045  14.945  1.00 22.90     0.003 C 
HETATM   52  C38 RAP A 108       8.971  12.657  15.447  1.00 14.17     0.032 C 
HETATM   53  C39 RAP A 108       9.492  13.589  16.542  1.00 34.20     0.142 C 
HETATM   54  C40 RAP A 108       9.419  15.078  16.059  1.00 38.24     0.138 C 
HETATM   55  C41 RAP A 108       8.030  15.474  15.518  1.00 16.32     0.032 C 
HETATM   56  C42 RAP A 108       7.562  14.492  14.453  1.00 14.05     0.003 C 
BRANCH  53  57
HETATM   57  O12 RAP A 108      10.826  13.217  16.782  1.00 30.82    -0.352 OA
HETATM   58  C52 RAP A 108      11.080  12.531  17.959  1.00 28.14     0.174 C 
ENDBRANCH  53  57
BRANCH  54  59
HETATM   59  O13 RAP A 108       9.759  15.939  17.144  1.00 28.84    -0.382 OA
HETATM   60  HO3 RAP A 108       8.973  16.116  17.677  1.00 13.32     0.210 HD
ENDBRANCH  54  59
ENDBRANCH  50  51
ENDBRANCH  48  50
ENDBRANCH  41  48
BRANCH  35  61
HETATM   61  O10 RAP A 108       5.193  15.133  10.346  1.00 12.16    -0.378 OA
HETATM   62  HO1 RAP A 108       6.117  14.854  10.264  1.00 13.32     0.211 HD
ENDBRANCH  35  61
BRANCH  16  63
HETATM   63  O6  RAP A 108       1.519   6.802  18.527  1.00 14.16    -0.358 OA
HETATM   64  HO6 RAP A 108       0.845   7.439  18.783  1.00 13.32     0.213 HD
ENDBRANCH  16  63
BRANCH  34  65
HETATM   65  O9  RAP A 108       5.717  17.939  11.124  1.00 23.09    -0.344 OA
HETATM   66  C51 RAP A 108       6.678  17.833  12.116  1.00 19.04     0.175 C 
ENDBRANCH  34  65
BRANCH  23  67
HETATM   67  O7  RAP A 108      -1.256  11.238  17.606  1.00 20.17    -0.350 OA
HETATM   68  C50 RAP A 108      -1.399  11.981  18.774  1.00 28.36     0.175 C 
ENDBRANCH  23  67
TORSDOF 9
ENDMDL
MODEL 3
REMARK VINA RESULT:    -9.316      1.867      2.664
REMARK INTER + INTRA:         -15.733
REMARK INTER:                 -13.501
REMARK INTRA:                  -2.232
REMARK UNBOUND:                -2.332
REMARK  9 active torsions:
REMARK  status: ('A' for Active; 'I' for Inactive)
REMARK    1  A    between atoms: O6_12  and  C10_19 
REMARK    2  A    between atoms: O7_14  and  C16_29 
REMARK    3  A    between atoms: O9_18  and  C27_40 
REMARK    4  A    between atoms: O10_20  and  C28_41 
REMARK    5  A    between atoms: O12_24  and  C39_52 
REMARK    6  A    between atoms: O13_26  and  C40_53 
REMARK    7  A    between atoms: C34_47  and  C35_48 
REMARK    8  A    between atoms: C35_48  and  C36_49 
REMARK    9  A    between atoms: C36_49  and  C37_50 
ROOT
HETATM    1  C1  RAP A 108       4.587   8.556  12.903  1.00  5.98     0.292 C 
HETATM    2  O1  RAP A 108       4.209   9.647  13.732  1.00  9.08    -0.302 OA
HETATM    3  C2  RAP A 108       4.141   7.123  13.192  1.00  6.42     0.171 C 
HETATM    4  O2  RAP A 108       5.322   8.786  11.944  1.00 14.08    -0.262 OA
HETATM    5  C3  RAP A 108       3.692   6.421  11.919  1.00  5.50     0.033 C 
HETATM    6  O3  RAP A 108       4.517   6.297  15.712  1.00 10.38    -0.264 OA
HETATM    7  C4  RAP A 108       2.324   6.869  11.425  1.00  4.49     0.004 C 
HETATM    8  O4  RAP A 108       1.753   5.379  16.529  1.00 10.60    -0.281 OA
HETATM    9  C5  RAP A 108       1.329   6.684  12.557  1.00  4.19     0.024 C 
HETATM   10  O5  RAP A 108       1.227   8.494  16.679  1.00 10.76    -0.332 OA
HETATM   11  C6  RAP A 108       1.743   7.467  13.765  1.00  3.25     0.105 C 
HETATM   12  N7  RAP A 108       3.069   6.981  14.182  1.00  8.46    -0.307 N 
HETATM   13  C8  RAP A 108       3.349   6.600  15.438  1.00 10.06     0.297 C 
HETATM   14  O8  RAP A 108       3.507  17.711   8.702  1.00 18.31    -0.293 OA
HETATM   15  C9  RAP A 108       2.360   6.454  16.436  1.00 11.13     0.279 C 
HETATM   16  C10 RAP A 108       2.008   7.585  17.419  1.00 16.59     0.246 C 
HETATM   17  C11 RAP A 108       3.278   8.337  17.993  1.00 10.40     0.059 C 
HETATM   18  O11 RAP A 108       2.205  10.737  11.839  1.00  9.49    -0.296 OA
HETATM   19  C12 RAP A 108       2.877   9.644  18.715  1.00 12.17     0.008 C 
HETATM   20  C13 RAP A 108       1.941  10.468  17.842  1.00 12.80     0.030 C 
HETATM   21  C14 RAP A 108       0.779   9.663  17.267  1.00 10.37     0.121 C 
HETATM   22  C15 RAP A 108       0.127  10.442  16.138  1.00  5.94     0.064 C 
HETATM   23  C16 RAP A 108      -0.658  11.688  16.530  1.00  9.79     0.136 C 
HETATM   24  C17 RAP A 108      -1.223  12.388  15.314  1.00 15.52    -0.017 C 
HETATM   25  C18 RAP A 108      -0.759  13.592  15.004  1.00 14.38    -0.006 C 
HETATM   26  C19 RAP A 108      -1.186  14.382  13.841  1.00  9.73    -0.001 C 
HETATM   27  C20 RAP A 108      -0.684  15.597  13.668  1.00 10.26    -0.000 C 
HETATM   28  C21 RAP A 108      -1.002  16.391  12.467  1.00 11.40    -0.005 C 
HETATM   29  C22 RAP A 108      -0.357  17.507  12.181  1.00 17.77    -0.026 C 
HETATM   30  C23 RAP A 108      -0.563  18.304  10.911  1.00 15.64     0.022 C 
HETATM   31  C24 RAP A 108       0.798  18.425  10.248  1.00 14.68     0.012 C 
HETATM   32  C25 RAP A 108       1.572  17.141  10.011  1.00 11.87     0.061 C 
HETATM   33  C26 RAP A 108       3.053  17.431   9.809  1.00 11.65     0.180 C 
HETATM   34  C27 RAP A 108       3.942  17.345  11.045  1.00  8.13     0.203 C 
HETATM   35  C28 RAP A 108       4.417  15.893  11.372  1.00 10.80     0.163 C 
HETATM   36  C29 RAP A 108       3.370  15.060  12.137  1.00  9.60    -0.019 C 
HETATM   37  C30 RAP A 108       2.724  14.029  11.592  1.00  8.55    -0.025 C 
HETATM   38  C31 RAP A 108       1.696  13.076  12.218  1.00  8.43     0.079 C 
HETATM   39  C32 RAP A 108       2.365  11.740  12.541  1.00 10.69     0.157 C 
HETATM   40  C33 RAP A 108       3.287  11.740  13.755  1.00  6.51     0.095 C 
HETATM   41  C34 RAP A 108       4.566  10.966  13.507  1.00  9.62     0.132 C 
HETATM   42  C43 RAP A 108       4.209   7.474  18.897  1.00 11.25     0.005 C 
HETATM   43  C44 RAP A 108      -2.329  11.629  14.558  1.00 14.40     0.029 C 
HETATM   44  C45 RAP A 108      -1.138  19.680  11.217  1.00  9.23     0.005 C 
HETATM   45  C46 RAP A 108       1.005  16.350   8.829  1.00 15.99     0.008 C 
HETATM   46  C47 RAP A 108       3.125  15.521  13.561  1.00 14.60     0.029 C 
HETATM   47  C48 RAP A 108       0.552  12.854  11.216  1.00  9.37     0.013 C 
ENDROOT
BRANCH  41  48
HETATM   48  C35 RAP A 108       5.778  11.235  14.421  1.00  9.58     0.028 C 
HETATM   49  C49 RAP A 108       5.574  10.697  15.808  1.00  8.29     0.003 C 
BRANCH  48  50
HETATM   50  C36 RAP A 108       6.143  12.718  14.471  1.00 10.31     0.003 C 
BRANCH  50  51
HETATM   51  C37 RAP A 108       6.057  13.417  15.830  1.00 22.90     0.003 C 
HETATM   52  C38 RAP A 108       7.169  14.465  15.953  1.00 14.17     0.032 C 
HETATM   53  C39 RAP A 108       7.219  15.123  17.333  1.00 34.20     0.142 C 
HETATM   54  C40 RAP A 108       5.808  15.696  17.705  1.00 38.24     0.138 C 
HETATM   55  C41 RAP A 108       4.673  14.663  17.551  1.00 16.32     0.032 C 
HETATM   56  C42 RAP A 108       4.698  14.030  16.168  1.00 14.05     0.003 C 
BRANCH  53  57
HETATM   57  O12 RAP A 108       8.162  16.161  17.246  1.00 30.82    -0.352 OA
HETATM   58  C52 RAP A 108       9.011  16.142  16.152  1.00 28.14     0.174 C 
ENDBRANCH  53  57
BRANCH  54  59
HETATM   59  O13 RAP A 108       5.833  16.164  19.052  1.00 28.84    -0.382 OA
HETATM   60  HO3 RAP A 108       5.005  16.617  19.254  1.00 13.32     0.210 HD
ENDBRANCH  54  59
ENDBRANCH  50  51
ENDBRANCH  48  50
ENDBRANCH  41  48
BRANCH  35  61
HETATM   61  O10 RAP A 108       4.735  15.253  10.130  1.00 12.16    -0.378 OA
HETATM   62  HO1 RAP A 108       5.689  15.254   9.963  1.00 13.32     0.211 HD
ENDBRANCH  35  61
BRANCH  16  63
HETATM   63  O6  RAP A 108       1.265   7.032  18.510  1.00 14.16    -0.358 OA
HETATM   64  HO6 RAP A 108       0.333   7.217  18.359  1.00 13.32     0.213 HD
ENDBRANCH  16  63
BRANCH  34  65
HETATM   65  O9  RAP A 108       5.099  18.106  10.820  1.00 23.09    -0.344 OA
HETATM   66  C51 RAP A 108       5.232  19.238  11.606  1.00 19.04     0.175 C 
ENDBRANCH  34  65
BRANCH  23  67
HETATM   67  O7  RAP A 108      -1.701  11.289  17.363  1.00 20.17    -0.350 OA
HETATM   68  C50 RAP A 108      -1.953  12.099  18.466  1.00 28.36     0.175 C 
ENDBRANCH  23  67
TORSDOF 9
ENDMDL
