MODEL 1
REMARK VINA RESULT:   -10.822      0.000      0.000
REMARK INTER + INTRA:         -17.893
REMARK INTER:                 -15.566
REMARK INTRA:                  -2.327
REMARK UNBOUND:                -2.327
REMARK  9 active torsions:
REMARK  status: ('A' for Active; 'I' for Inactive)
REMARK    1  A    between atoms: O6_12  and  C10_19 
REMARK    2  A    between atoms: O7_14  and  C16_29 
REMARK    3  A    between atoms: O9_18  and  C27_40 
REMARK    4  A    between atoms: O10_20  and  C28_41 
REMARK    5  A    between atoms: O12_24  and  C39_52 
REMARK    6  A    between atoms: O13_26  and  C40_53 
REMARK    7  A    between atoms: C34_47  and  C35_48 
REMARK    8  A    between atoms: C35_48  and  C36_49 
REMARK    9  A    between atoms: C36_49  and  C37_50 
ROOT
HETATM    1  C1  RAP A 108       4.748   8.369  12.979  1.00  5.98     0.292 C 
HETATM    2  O1  RAP A 108       4.416   9.456  13.833  1.00  9.08    -0.302 OA
HETATM    3  C2  RAP A 108       4.254   6.947  13.245  1.00  6.42     0.171 C 
HETATM    4  O2  RAP A 108       5.482   8.591  12.018  1.00 14.08    -0.262 OA
HETATM    5  C3  RAP A 108       3.769   6.287  11.963  1.00  5.50     0.033 C 
HETATM    6  O3  RAP A 108       4.623   6.058  15.745  1.00 10.38    -0.264 OA
HETATM    7  C4  RAP A 108       2.413   6.792  11.491  1.00  4.49     0.004 C 
HETATM    8  O4  RAP A 108       1.835   5.224  16.570  1.00 10.60    -0.281 OA
HETATM    9  C5  RAP A 108       1.422   6.621  12.628  1.00  4.19     0.024 C 
HETATM   10  O5  RAP A 108       1.422   8.352  16.786  1.00 10.76    -0.332 OA
HETATM   11  C6  RAP A 108       1.875   7.365  13.847  1.00  3.25     0.105 C 
HETATM   12  N7  RAP A 108       3.186   6.823  14.242  1.00  8.46    -0.307 N 
HETATM   13  C8  RAP A 108       3.464   6.409  15.488  1.00 10.06     0.297 C 
HETATM   14  O8  RAP A 108       3.957  17.637   8.967  1.00 18.31    -0.293 OA
HETATM   15  C9  RAP A 108       2.479   6.278  16.492  1.00 11.13     0.279 C 
HETATM   16  C10 RAP A 108       2.176   7.401  17.500  1.00 16.59     0.246 C 
HETATM   17  C11 RAP A 108       3.477   8.096  18.076  1.00 10.40     0.059 C 
HETATM   18  O11 RAP A 108       2.435  10.654  11.980  1.00  9.49    -0.296 OA
HETATM   19  C12 RAP A 108       3.130   9.402  18.827  1.00 12.17     0.008 C 
HETATM   20  C13 RAP A 108       2.215  10.276  17.980  1.00 12.80     0.030 C 
HETATM   21  C14 RAP A 108       1.021   9.524  17.400  1.00 10.37     0.121 C 
HETATM   22  C15 RAP A 108       0.387  10.347  16.293  1.00  5.94     0.064 C 
HETATM   23  C16 RAP A 108      -0.349  11.612  16.717  1.00  9.79     0.136 C 
HETATM   24  C17 RAP A 108      -0.901  12.356  15.519  1.00 15.52    -0.017 C 
HETATM   25  C18 RAP A 108      -0.396  13.548  15.229  1.00 14.38    -0.006 C 
HETATM   26  C19 RAP A 108      -0.806  14.376  14.086  1.00  9.73    -0.001 C 
HETATM   27  C20 RAP A 108      -0.262  15.576  13.931  1.00 10.26    -0.000 C 
HETATM   28  C21 RAP A 108      -0.562  16.404  12.749  1.00 11.40    -0.005 C 
HETATM   29  C22 RAP A 108       0.119  17.502  12.478  1.00 17.77    -0.026 C 
HETATM   30  C23 RAP A 108      -0.069  18.331  11.226  1.00 15.64     0.022 C 
HETATM   31  C24 RAP A 108       1.289  18.416  10.553  1.00 14.68     0.012 C 
HETATM   32  C25 RAP A 108       2.015  17.111  10.283  1.00 11.87     0.061 C 
HETATM   33  C26 RAP A 108       3.503  17.352  10.073  1.00 11.65     0.180 C 
HETATM   34  C27 RAP A 108       4.400  17.210  11.298  1.00  8.13     0.203 C 
HETATM   35  C28 RAP A 108       4.826  15.736  11.593  1.00 10.80     0.163 C 
HETATM   36  C29 RAP A 108       3.757  14.925  12.351  1.00  9.60    -0.019 C 
HETATM   37  C30 RAP A 108       3.070  13.929  11.793  1.00  8.55    -0.025 C 
HETATM   38  C31 RAP A 108       2.013  13.001  12.409  1.00  8.43     0.079 C 
HETATM   39  C32 RAP A 108       2.638  11.636  12.701  1.00 10.69     0.157 C 
HETATM   40  C33 RAP A 108       3.570  11.580  13.905  1.00  6.51     0.095 C 
HETATM   41  C34 RAP A 108       4.818  10.766  13.630  1.00  9.62     0.132 C 
HETATM   42  C43 RAP A 108       4.385   7.183  18.954  1.00 11.25     0.005 C 
HETATM   43  C44 RAP A 108      -2.039  11.652  14.760  1.00 14.40     0.029 C 
HETATM   44  C45 RAP A 108      -0.592  19.720  11.564  1.00  9.23     0.005 C 
HETATM   45  C46 RAP A 108       1.409  16.364   9.092  1.00 15.99     0.008 C 
HETATM   46  C47 RAP A 108       3.541  15.367  13.786  1.00 14.60     0.029 C 
HETATM   47  C48 RAP A 108       0.854  12.839  11.414  1.00  9.37     0.013 C 
ENDROOT
BRANCH  41  48
HETATM   48  C35 RAP A 108       6.047  10.974  14.538  1.00  9.58     0.028 C 
HETATM   49  C49 RAP A 108       5.673  11.064  15.989  1.00  8.29     0.003 C 
BRANCH  48  50
HETATM   50  C36 RAP A 108       6.870  12.192  14.121  1.00 10.31     0.003 C 
BRANCH  50  51
HETATM   51  C37 RAP A 108       7.485  12.178  12.720  1.00 22.90     0.003 C 
HETATM   52  C38 RAP A 108       7.782  13.610  12.262  1.00 14.17     0.032 C 
HETATM   53  C39 RAP A 108       8.291  13.683  10.821  1.00 34.20     0.142 C 
HETATM   54  C40 RAP A 108       9.519  12.725  10.638  1.00 38.24     0.138 C 
HETATM   55  C41 RAP A 108       9.247  11.288  11.128  1.00 16.32     0.032 C 
HETATM   56  C42 RAP A 108       8.719  11.291  12.555  1.00 14.05     0.003 C 
BRANCH  53  57
HETATM   57  O12 RAP A 108       8.673  15.016  10.599  1.00 30.82    -0.352 OA
HETATM   58  C52 RAP A 108       9.627  15.543  11.456  1.00 28.14     0.174 C 
ENDBRANCH  53  57
BRANCH  54  59
HETATM   59  O13 RAP A 108       9.880  12.687   9.258  1.00 28.84    -0.382 OA
HETATM   60  HO3 RAP A 108      10.150  13.567   8.969  1.00 13.32     0.210 HD
ENDBRANCH  54  59
ENDBRANCH  50  51
ENDBRANCH  48  50
ENDBRANCH  41  48
BRANCH  35  61
HETATM   61  O10 RAP A 108       5.110  15.109  10.335  1.00 12.16    -0.378 OA
HETATM   62  HO1 RAP A 108       5.995  15.338  10.016  1.00 13.32     0.211 HD
ENDBRANCH  35  61
BRANCH  16  63
HETATM   63  O6  RAP A 108       1.424   6.853  18.587  1.00 14.16    -0.358 OA
HETATM   64  HO6 RAP A 108       1.995   6.822  19.360  1.00 13.32     0.213 HD
ENDBRANCH  16  63
BRANCH  34  65
HETATM   65  O9  RAP A 108       5.581  17.934  11.077  1.00 23.09    -0.344 OA
HETATM   66  C51 RAP A 108       6.563  17.786  12.042  1.00 19.04     0.175 C 
ENDBRANCH  34  65
BRANCH  23  67
HETATM   67  O7  RAP A 108      -1.399  11.234  17.551  1.00 20.17    -0.350 OA
HETATM   68  C50 RAP A 108      -1.558  11.978  18.717  1.00 28.36     0.175 C 
ENDBRANCH  23  67
TORSDOF 9
ENDMDL
MODEL 2
REMARK VINA RESULT:   -10.017      1.686      2.193
REMARK INTER + INTRA:         -16.736
REMARK INTER:                 -14.756
REMARK INTRA:                  -1.980
REMARK UNBOUND:                -2.327
REMARK  9 active torsions:
REMARK  status: ('A' for Active; 'I' for Inactive)
REMARK    1  A    between atoms: O6_12  and  C10_19 
REMARK    2  A    between atoms: O7_14  and  C16_29 
REMARK    3  A    between atoms: O9_18  and  C27_40 
REMARK    4  A    between atoms: O10_20  and  C28_41 
REMARK    5  A    between atoms: O12_24  and  C39_52 
REMARK    6  A    between atoms: O13_26  and  C40_53 
REMARK    7  A    between atoms: C34_47  and  C35_48 
REMARK    8  A    between atoms: C35_48  and  C36_49 
REMARK    9  A    between atoms: C36_49  and  C37_50 
ROOT
HETATM    1  C1  RAP A 108       4.737   8.359  12.901  1.00  5.98     0.292 C 
HETATM    2  O1  RAP A 108       4.453   9.440  13.780  1.00  9.08    -0.302 OA
HETATM    3  C2  RAP A 108       4.224   6.943  13.163  1.00  6.42     0.171 C 
HETATM    4  O2  RAP A 108       5.444   8.581  11.921  1.00 14.08    -0.262 OA
HETATM    5  C3  RAP A 108       3.686   6.310  11.888  1.00  5.50     0.033 C 
HETATM    6  O3  RAP A 108       4.655   6.012  15.638  1.00 10.38    -0.264 OA
HETATM    7  C4  RAP A 108       2.326   6.847  11.467  1.00  4.49     0.004 C 
HETATM    8  O4  RAP A 108       1.879   5.218  16.540  1.00 10.60    -0.281 OA
HETATM    9  C5  RAP A 108       1.369   6.679  12.633  1.00  4.19     0.024 C 
HETATM   10  O5  RAP A 108       1.533   8.350  16.811  1.00 10.76    -0.332 OA
HETATM   11  C6  RAP A 108       1.874   7.396  13.846  1.00  3.25     0.105 C 
HETATM   12  N7  RAP A 108       3.186   6.825  14.192  1.00  8.46    -0.307 N 
HETATM   13  C8  RAP A 108       3.495   6.387  15.423  1.00 10.06     0.297 C 
HETATM   14  O8  RAP A 108       3.999  17.696   9.043  1.00 18.31    -0.293 OA
HETATM   15  C9  RAP A 108       2.540   6.261  16.456  1.00 11.13     0.279 C 
HETATM   16  C10 RAP A 108       2.291   7.375  17.489  1.00 16.59     0.246 C 
HETATM   17  C11 RAP A 108       3.623   8.037  18.032  1.00 10.40     0.059 C 
HETATM   18  O11 RAP A 108       2.439  10.701  12.008  1.00  9.49    -0.296 OA
HETATM   19  C12 RAP A 108       3.324   9.339  18.811  1.00 12.17     0.008 C 
HETATM   20  C13 RAP A 108       2.401  10.242  18.005  1.00 12.80     0.030 C 
HETATM   21  C14 RAP A 108       1.174   9.521  17.454  1.00 10.37     0.121 C 
HETATM   22  C15 RAP A 108       0.522  10.371  16.379  1.00  5.94     0.064 C 
HETATM   23  C16 RAP A 108      -0.176  11.644  16.843  1.00  9.79     0.136 C 
HETATM   24  C17 RAP A 108      -0.751  12.415  15.674  1.00 15.52    -0.017 C 
HETATM   25  C18 RAP A 108      -0.233  13.602  15.384  1.00 14.38    -0.006 C 
HETATM   26  C19 RAP A 108      -0.662  14.453  14.265  1.00  9.73    -0.001 C 
HETATM   27  C20 RAP A 108      -0.101  15.644  14.110  1.00 10.26    -0.000 C 
HETATM   28  C21 RAP A 108      -0.422  16.495  12.949  1.00 11.40    -0.005 C 
HETATM   29  C22 RAP A 108       0.272  17.583  12.672  1.00 17.77    -0.026 C 
HETATM   30  C23 RAP A 108       0.060  18.433  11.438  1.00 15.64     0.022 C 
HETATM   31  C24 RAP A 108       1.398  18.503  10.723  1.00 14.68     0.012 C 
HETATM   32  C25 RAP A 108       2.089  17.188  10.412  1.00 11.87     0.061 C 
HETATM   33  C26 RAP A 108       3.575  17.404  10.158  1.00 11.65     0.180 C 
HETATM   34  C27 RAP A 108       4.507  17.228  11.353  1.00  8.13     0.203 C 
HETATM   35  C28 RAP A 108       4.913  15.742  11.613  1.00 10.80     0.163 C 
HETATM   36  C29 RAP A 108       3.853  14.941  12.394  1.00  9.60    -0.019 C 
HETATM   37  C30 RAP A 108       3.130  13.966  11.844  1.00  8.55    -0.025 C 
HETATM   38  C31 RAP A 108       2.075  13.049  12.482  1.00  8.43     0.079 C 
HETATM   39  C32 RAP A 108       2.682  11.669  12.734  1.00 10.69     0.157 C 
HETATM   40  C33 RAP A 108       3.651  11.578  13.908  1.00  6.51     0.095 C 
HETATM   41  C34 RAP A 108       4.873  10.744  13.582  1.00  9.62     0.132 C 
HETATM   42  C43 RAP A 108       4.540   7.095  18.868  1.00 11.25     0.005 C 
HETATM   43  C44 RAP A 108      -1.926  11.743  14.942  1.00 14.40     0.029 C 
HETATM   44  C45 RAP A 108      -0.425  19.827  11.811  1.00  9.23     0.005 C 
HETATM   45  C46 RAP A 108       1.432  16.469   9.231  1.00 15.99     0.008 C 
HETATM   46  C47 RAP A 108       3.691  15.366  13.841  1.00 14.60     0.029 C 
HETATM   47  C48 RAP A 108       0.882  12.923  11.522  1.00  9.37     0.013 C 
ENDROOT
BRANCH  41  48
HETATM   48  C35 RAP A 108       6.134  10.916  14.453  1.00  9.58     0.028 C 
HETATM   49  C49 RAP A 108       5.800  11.139  15.900  1.00  8.29     0.003 C 
BRANCH  48  50
HETATM   50  C36 RAP A 108       7.042  12.031  13.936  1.00 10.31     0.003 C 
BRANCH  50  51
HETATM   51  C37 RAP A 108       7.533  13.064  14.953  1.00 22.90     0.003 C 
HETATM   52  C38 RAP A 108       8.966  12.733  15.389  1.00 14.17     0.032 C 
HETATM   53  C39 RAP A 108       9.482  13.657  16.494  1.00 34.20     0.142 C 
HETATM   54  C40 RAP A 108       9.315  15.155  16.062  1.00 38.24     0.138 C 
HETATM   55  C41 RAP A 108       7.887  15.494  15.587  1.00 16.32     0.032 C 
HETATM   56  C42 RAP A 108       7.428  14.523  14.509  1.00 14.05     0.003 C 
BRANCH  53  57
HETATM   57  O12 RAP A 108      10.841  13.347  16.670  1.00 30.82    -0.352 OA
HETATM   58  C52 RAP A 108      11.184  12.694  17.843  1.00 28.14     0.174 C 
ENDBRANCH  53  57
BRANCH  54  59
HETATM   59  O13 RAP A 108       9.654  15.999  17.160  1.00 28.84    -0.382 OA
HETATM   60  HO3 RAP A 108      10.546  15.791  17.467  1.00 13.32     0.210 HD
ENDBRANCH  54  59
ENDBRANCH  50  51
ENDBRANCH  48  50
ENDBRANCH  41  48
BRANCH  35  61
HETATM   61  O10 RAP A 108       5.145  15.128  10.339  1.00 12.16    -0.378 OA
HETATM   62  HO1 RAP A 108       4.995  15.750   9.612  1.00 13.32     0.211 HD
ENDBRANCH  35  61
BRANCH  16  63
HETATM   63  O6  RAP A 108       1.563   6.827  18.591  1.00 14.16    -0.358 OA
HETATM   64  HO6 RAP A 108       2.178   6.692  19.317  1.00 13.32     0.213 HD
ENDBRANCH  16  63
BRANCH  34  65
HETATM   65  O9  RAP A 108       5.694  17.932  11.104  1.00 23.09    -0.344 OA
HETATM   66  C51 RAP A 108       6.677  17.807  12.070  1.00 19.04     0.175 C 
ENDBRANCH  34  65
BRANCH  23  67
HETATM   67  O7  RAP A 108      -1.206  11.274  17.705  1.00 20.17    -0.350 OA
HETATM   68  C50 RAP A 108      -1.376  12.066  18.837  1.00 28.36     0.175 C 
ENDBRANCH  23  67
TORSDOF 9
ENDMDL
