MODEL 1
REMARK VINA RESULT:    -6.196      0.000      0.000
REMARK INTER + INTRA:         -11.292
REMARK INTER:                  -8.912
REMARK INTRA:                  -2.380
REMARK UNBOUND:                -2.380
REMARK  9 active torsions:
REMARK  status: ('A' for Active; 'I' for Inactive)
REMARK    1  A    between atoms: O6_12  and  C10_19 
REMARK    2  A    between atoms: O7_14  and  C16_29 
REMARK    3  A    between atoms: O9_18  and  C27_40 
REMARK    4  A    between atoms: O10_20  and  C28_41 
REMARK    5  A    between atoms: O12_24  and  C39_52 
REMARK    6  A    between atoms: O13_26  and  C40_53 
REMARK    7  A    between atoms: C34_47  and  C35_48 
REMARK    8  A    between atoms: C35_48  and  C36_49 
REMARK    9  A    between atoms: C36_49  and  C37_50 
ROOT
HETATM    1  C1  RAP A 108      11.324  -3.859  29.343  1.00  5.98     0.292 C 
HETATM    2  O1  RAP A 108      11.422  -2.751  28.459  1.00  9.08    -0.302 OA
HETATM    3  C2  RAP A 108      12.542  -4.696  29.734  1.00  6.42     0.171 C 
HETATM    4  O2  RAP A 108      10.213  -4.159  29.774  1.00 14.08    -0.262 OA
HETATM    5  C3  RAP A 108      12.546  -4.995  31.226  1.00  5.50     0.033 C 
HETATM    6  O3  RAP A 108      14.068  -5.517  27.691  1.00 10.38    -0.264 OA
HETATM    7  C4  RAP A 108      12.945  -3.805  32.087  1.00  4.49     0.004 C 
HETATM    8  O4  RAP A 108      16.809  -4.496  28.456  1.00 10.60    -0.281 OA
HETATM    9  C5  RAP A 108      14.294  -3.304  31.605  1.00  4.19     0.024 C 
HETATM   10  O5  RAP A 108      15.556  -1.728  27.579  1.00 10.76    -0.332 OA
HETATM   11  C6  RAP A 108      14.235  -2.921  30.158  1.00  3.25     0.105 C 
HETATM   12  N7  RAP A 108      13.846  -4.117  29.392  1.00  8.46    -0.307 N 
HETATM   13  C8  RAP A 108      14.528  -4.559  28.325  1.00 10.06     0.297 C 
HETATM   14  O8  RAP A 108       4.890   3.877  30.513  1.00 18.31    -0.293 OA
HETATM   15  C9  RAP A 108      15.782  -4.034  27.943  1.00 11.13     0.279 C 
HETATM   16  C10 RAP A 108      15.922  -2.908  26.903  1.00 16.59     0.246 C 
HETATM   17  C11 RAP A 108      14.984  -3.097  25.642  1.00 10.40     0.059 C 
HETATM   18  O11 RAP A 108      11.156  -0.694  30.578  1.00  9.49    -0.296 OA
HETATM   19  C12 RAP A 108      14.923  -1.808  24.790  1.00 12.17     0.008 C 
HETATM   20  C13 RAP A 108      14.635  -0.600  25.672  1.00 12.80     0.030 C 
HETATM   21  C14 RAP A 108      15.530  -0.521  26.905  1.00 10.37     0.121 C 
HETATM   22  C15 RAP A 108      14.945   0.468  27.898  1.00  5.94     0.064 C 
HETATM   23  C16 RAP A 108      14.996   1.940  27.509  1.00  9.79     0.136 C 
HETATM   24  C17 RAP A 108      14.350   2.812  28.564  1.00 15.52    -0.017 C 
HETATM   25  C18 RAP A 108      13.233   3.457  28.254  1.00 14.38    -0.006 C 
HETATM   26  C19 RAP A 108      12.476   4.314  29.177  1.00  9.73    -0.001 C 
HETATM   27  C20 RAP A 108      11.400   4.948  28.732  1.00 10.26    -0.000 C 
HETATM   28  C21 RAP A 108      10.548   5.739  29.639  1.00 11.40    -0.005 C 
HETATM   29  C22 RAP A 108       9.372   6.204  29.261  1.00 17.77    -0.026 C 
HETATM   30  C23 RAP A 108       8.410   6.926  30.178  1.00 15.64     0.022 C 
HETATM   31  C24 RAP A 108       7.100   6.158  30.126  1.00 14.68     0.012 C 
HETATM   32  C25 RAP A 108       7.158   4.667  30.400  1.00 11.87     0.061 C 
HETATM   33  C26 RAP A 108       5.922   3.967  29.852  1.00 11.65     0.180 C 
HETATM   34  C27 RAP A 108       6.034   3.375  28.451  1.00  8.13     0.203 C 
HETATM   35  C28 RAP A 108       6.677   1.951  28.425  1.00 10.80     0.163 C 
HETATM   36  C29 RAP A 108       8.217   1.968  28.480  1.00  9.60    -0.019 C 
HETATM   37  C30 RAP A 108       8.910   1.552  29.539  1.00  8.55    -0.025 C 
HETATM   38  C31 RAP A 108      10.430   1.461  29.742  1.00  8.43     0.079 C 
HETATM   39  C32 RAP A 108      10.880   0.007  29.599  1.00 10.69     0.157 C 
HETATM   40  C33 RAP A 108      10.912  -0.539  28.176  1.00  6.51     0.095 C 
HETATM   41  C34 RAP A 108      10.358  -1.946  28.086  1.00  9.62     0.132 C 
HETATM   42  C43 RAP A 108      15.312  -4.329  24.748  1.00 11.25     0.005 C 
HETATM   43  C44 RAP A 108      15.088   2.888  29.913  1.00 14.40     0.029 C 
HETATM   44  C45 RAP A 108       8.207   8.367  29.733  1.00  9.23     0.005 C 
HETATM   45  C46 RAP A 108       7.336   4.373  31.892  1.00 15.99     0.008 C 
HETATM   46  C47 RAP A 108       8.879   2.516  27.230  1.00 14.60     0.029 C 
HETATM   47  C48 RAP A 108      10.774   1.975  31.148  1.00  9.37     0.013 C 
ENDROOT
BRANCH  41  48
HETATM   48  C35 RAP A 108       9.897  -2.468  26.711  1.00  9.58     0.028 C 
HETATM   49  C49 RAP A 108       8.492  -2.996  26.745  1.00  8.29     0.003 C 
BRANCH  48  50
HETATM   50  C36 RAP A 108      10.850  -3.521  26.146  1.00 10.31     0.003 C 
BRANCH  50  51
HETATM   51  C37 RAP A 108      11.538  -3.203  24.816  1.00 22.90     0.003 C 
HETATM   52  C38 RAP A 108      11.746  -4.491  24.011  1.00 14.17     0.032 C 
HETATM   53  C39 RAP A 108      12.535  -4.268  22.720  1.00 34.20     0.142 C 
HETATM   54  C40 RAP A 108      11.865  -3.130  21.873  1.00 38.24     0.138 C 
HETATM   55  C41 RAP A 108      11.617  -1.839  22.679  1.00 16.32     0.032 C 
HETATM   56  C42 RAP A 108      10.853  -2.137  23.961  1.00 14.05     0.003 C 
BRANCH  53  57
HETATM   57  O12 RAP A 108      12.503  -5.484  22.017  1.00 30.82    -0.352 OA
HETATM   58  C52 RAP A 108      13.726  -6.041  21.679  1.00 28.14     0.174 C 
ENDBRANCH  53  57
BRANCH  54  59
HETATM   59  O13 RAP A 108      12.698  -2.829  20.755  1.00 28.84    -0.382 OA
HETATM   60  HO3 RAP A 108      12.151  -2.683  19.973  1.00 13.32     0.210 HD
ENDBRANCH  54  59
ENDBRANCH  50  51
ENDBRANCH  48  50
ENDBRANCH  41  48
BRANCH  35  61
HETATM   61  O10 RAP A 108       6.159   1.223  29.546  1.00 12.16    -0.378 OA
HETATM   62  HO1 RAP A 108       6.435   0.295  29.525  1.00 13.32     0.211 HD
ENDBRANCH  35  61
BRANCH  16  63
HETATM   63  O6  RAP A 108      17.283  -2.852  26.465  1.00 14.16    -0.358 OA
HETATM   64  HO6 RAP A 108      17.287  -2.874  25.503  1.00 13.32     0.213 HD
ENDBRANCH  16  63
BRANCH  34  65
HETATM   65  O9  RAP A 108       4.745   3.245  27.914  1.00 23.09    -0.344 OA
HETATM   66  C51 RAP A 108       4.682   3.108  26.537  1.00 19.04     0.175 C 
ENDBRANCH  34  65
BRANCH  23  67
HETATM   67  O7  RAP A 108      16.335   2.297  27.369  1.00 20.17    -0.350 OA
HETATM   68  C50 RAP A 108      16.713   2.799  26.127  1.00 28.36     0.175 C 
ENDBRANCH  23  67
TORSDOF 9
ENDMDL
MODEL 2
REMARK VINA RESULT:    -5.742      3.826      8.097
REMARK INTER + INTRA:         -10.639
REMARK INTER:                  -8.005
REMARK INTRA:                  -2.633
REMARK UNBOUND:                -2.380
REMARK  9 active torsions:
REMARK  status: ('A' for Active; 'I' for Inactive)
REMARK    1  A    between atoms: O6_12  and  C10_19 
REMARK    2  A    between atoms: O7_14  and  C16_29 
REMARK    3  A    between atoms: O9_18  and  C27_40 
REMARK    4  A    between atoms: O10_20  and  C28_41 
REMARK    5  A    between atoms: O12_24  and  C39_52 
REMARK    6  A    between atoms: O13_26  and  C40_53 
REMARK    7  A    between atoms: C34_47  and  C35_48 
REMARK    8  A    between atoms: C35_48  and  C36_49 
REMARK    9  A    between atoms: C36_49  and  C37_50 
ROOT
HETATM    1  C1  RAP A 108      12.711  -3.599  22.298  1.00  5.98     0.292 C 
HETATM    2  O1  RAP A 108      12.952  -3.332  23.673  1.00  9.08    -0.302 OA
HETATM    3  C2  RAP A 108      13.794  -4.164  21.379  1.00  6.42     0.171 C 
HETATM    4  O2  RAP A 108      11.601  -3.333  21.843  1.00 14.08    -0.262 OA
HETATM    5  C3  RAP A 108      13.238  -5.266  20.490  1.00  5.50     0.033 C 
HETATM    6  O3  RAP A 108      16.153  -2.898  21.482  1.00 10.38    -0.264 OA
HETATM    7  C4  RAP A 108      13.010  -6.582  21.219  1.00  4.49     0.004 C 
HETATM    8  O4  RAP A 108      18.083  -5.142  22.105  1.00 10.60    -0.281 OA
HETATM    9  C5  RAP A 108      14.315  -6.989  21.879  1.00  4.19     0.024 C 
HETATM   10  O5  RAP A 108      16.800  -4.875  24.983  1.00 10.76    -0.332 OA
HETATM   11  C6  RAP A 108      14.787  -5.929  22.826  1.00  3.25     0.105 C 
HETATM   12  N7  RAP A 108      14.985  -4.692  22.053  1.00  8.46    -0.307 N 
HETATM   13  C8  RAP A 108      16.118  -3.974  22.093  1.00 10.06     0.297 C 
HETATM   14  O8  RAP A 108       5.020  -4.455  28.834  1.00 18.31    -0.293 OA
HETATM   15  C9  RAP A 108      17.292  -4.427  22.734  1.00 11.13     0.279 C 
HETATM   16  C10 RAP A 108      17.631  -4.060  24.190  1.00 16.59     0.246 C 
HETATM   17  C11 RAP A 108      17.353  -2.540  24.536  1.00 10.40     0.059 C 
HETATM   18  O11 RAP A 108      11.446  -5.684  24.668  1.00  9.49    -0.296 OA
HETATM   19  C12 RAP A 108      17.404  -2.295  26.062  1.00 12.17     0.008 C 
HETATM   20  C13 RAP A 108      16.553  -3.322  26.795  1.00 12.80     0.030 C 
HETATM   21  C14 RAP A 108      16.824  -4.759  26.361  1.00 10.37     0.121 C 
HETATM   22  C15 RAP A 108      15.704  -5.661  26.849  1.00  5.94     0.064 C 
HETATM   23  C16 RAP A 108      15.629  -5.908  28.350  1.00  9.79     0.136 C 
HETATM   24  C17 RAP A 108      14.451  -6.790  28.705  1.00 15.52    -0.017 C 
HETATM   25  C18 RAP A 108      13.461  -6.266  29.417  1.00 14.38    -0.006 C 
HETATM   26  C19 RAP A 108      12.242  -6.985  29.813  1.00  9.73    -0.001 C 
HETATM   27  C20 RAP A 108      11.346  -6.366  30.570  1.00 10.26    -0.000 C 
HETATM   28  C21 RAP A 108      10.062  -7.005  30.912  1.00 11.40    -0.005 C 
HETATM   29  C22 RAP A 108       9.083  -6.333  31.487  1.00 17.77    -0.026 C 
HETATM   30  C23 RAP A 108       7.709  -6.904  31.762  1.00 15.64     0.022 C 
HETATM   31  C24 RAP A 108       6.711  -5.984  31.079  1.00 14.68     0.012 C 
HETATM   32  C25 RAP A 108       6.935  -5.686  29.608  1.00 11.87     0.061 C 
HETATM   33  C26 RAP A 108       6.194  -4.422  29.193  1.00 11.65     0.180 C 
HETATM   34  C27 RAP A 108       6.986  -3.119  29.234  1.00  8.13     0.203 C 
HETATM   35  C28 RAP A 108       7.841  -2.869  27.951  1.00 10.80     0.163 C 
HETATM   36  C29 RAP A 108       9.187  -3.620  27.949  1.00  9.60    -0.019 C 
HETATM   37  C30 RAP A 108       9.446  -4.642  27.135  1.00  8.55    -0.025 C 
HETATM   38  C31 RAP A 108      10.733  -5.465  26.974  1.00  8.43     0.079 C 
HETATM   39  C32 RAP A 108      11.470  -5.022  25.710  1.00 10.69     0.157 C 
HETATM   40  C33 RAP A 108      12.191  -3.682  25.802  1.00  6.51     0.095 C 
HETATM   41  C34 RAP A 108      12.004  -2.840  24.556  1.00  9.62     0.132 C 
HETATM   42  C43 RAP A 108      18.250  -1.513  23.785  1.00 11.25     0.005 C 
HETATM   43  C44 RAP A 108      14.537  -8.248  28.220  1.00 14.40     0.029 C 
HETATM   44  C45 RAP A 108       7.437  -6.979  33.257  1.00  9.23     0.005 C 
HETATM   45  C46 RAP A 108       6.532  -6.870  28.724  1.00 15.99     0.008 C 
HETATM   46  C47 RAP A 108      10.188  -3.108  28.967  1.00 14.60     0.029 C 
HETATM   47  C48 RAP A 108      10.360  -6.952  26.862  1.00  9.37     0.013 C 
ENDROOT
BRANCH  41  48
HETATM   48  C35 RAP A 108      12.262  -1.323  24.648  1.00  9.58     0.028 C 
HETATM   49  C49 RAP A 108      11.431  -0.545  23.668  1.00  8.29     0.003 C 
BRANCH  48  50
HETATM   50  C36 RAP A 108      13.742  -0.980  24.485  1.00 10.31     0.003 C 
BRANCH  50  51
HETATM   51  C37 RAP A 108      14.467  -0.404  25.704  1.00 22.90     0.003 C 
HETATM   52  C38 RAP A 108      15.403   0.730  25.271  1.00 14.17     0.032 C 
HETATM   53  C39 RAP A 108      16.250   1.277  26.421  1.00 34.20     0.142 C 
HETATM   54  C40 RAP A 108      15.326   1.684  27.621  1.00 38.24     0.138 C 
HETATM   55  C41 RAP A 108      14.353   0.566  28.045  1.00 16.32     0.032 C 
HETATM   56  C42 RAP A 108      13.563   0.050  26.850  1.00 14.05     0.003 C 
BRANCH  53  57
HETATM   57  O12 RAP A 108      16.926   2.402  25.920  1.00 30.82    -0.352 OA
HETATM   58  C52 RAP A 108      18.157   2.177  25.326  1.00 28.14     0.174 C 
ENDBRANCH  53  57
BRANCH  54  59
HETATM   59  O13 RAP A 108      16.139   2.043  28.736  1.00 28.84    -0.382 OA
HETATM   60  HO3 RAP A 108      16.705   2.789  28.500  1.00 13.32     0.210 HD
ENDBRANCH  54  59
ENDBRANCH  50  51
ENDBRANCH  48  50
ENDBRANCH  41  48
BRANCH  35  61
HETATM   61  O10 RAP A 108       7.056  -3.275  26.822  1.00 12.16    -0.378 OA
HETATM   62  HO1 RAP A 108       6.244  -2.753  26.748  1.00 13.32     0.211 HD
ENDBRANCH  35  61
BRANCH  16  63
HETATM   63  O6  RAP A 108      19.013  -4.344  24.427  1.00 14.16    -0.358 OA
HETATM   64  HO6 RAP A 108      19.069  -4.948  25.174  1.00 13.32     0.213 HD
ENDBRANCH  16  63
BRANCH  34  65
HETATM   65  O9  RAP A 108       6.085  -2.049  29.333  1.00 23.09    -0.344 OA
HETATM   66  C51 RAP A 108       6.658  -0.794  29.456  1.00 19.04     0.175 C 
ENDBRANCH  34  65
BRANCH  23  67
HETATM   67  O7  RAP A 108      16.811  -6.535  28.738  1.00 20.17    -0.350 OA
HETATM   68  C50 RAP A 108      17.414  -6.051  29.895  1.00 28.36     0.175 C 
ENDBRANCH  23  67
TORSDOF 9
ENDMDL
MODEL 3
REMARK VINA RESULT:    -5.731      3.485     10.377
REMARK INTER + INTRA:         -10.623
REMARK INTER:                  -7.962
REMARK INTRA:                  -2.661
REMARK UNBOUND:                -2.380
REMARK  9 active torsions:
REMARK  status: ('A' for Active; 'I' for Inactive)
REMARK    1  A    between atoms: O6_12  and  C10_19 
REMARK    2  A    between atoms: O7_14  and  C16_29 
REMARK    3  A    between atoms: O9_18  and  C27_40 
REMARK    4  A    between atoms: O10_20  and  C28_41 
REMARK    5  A    between atoms: O12_24  and  C39_52 
REMARK    6  A    between atoms: O13_26  and  C40_53 
REMARK    7  A    between atoms: C34_47  and  C35_48 
REMARK    8  A    between atoms: C35_48  and  C36_49 
REMARK    9  A    between atoms: C36_49  and  C37_50 
ROOT
HETATM    1  C1  RAP A 108      12.626  -0.924  29.233  1.00  5.98     0.292 C 
HETATM    2  O1  RAP A 108      11.697  -1.688  28.476  1.00  9.08    -0.302 OA
HETATM    3  C2  RAP A 108      12.286  -0.370  30.616  1.00  6.42     0.171 C 
HETATM    4  O2  RAP A 108      13.723  -0.685  28.732  1.00 14.08    -0.262 OA
HETATM    5  C3  RAP A 108      13.439  -0.574  31.588  1.00  5.50     0.033 C 
HETATM    6  O3  RAP A 108       9.953   0.937  30.781  1.00 10.38    -0.264 OA
HETATM    7  C4  RAP A 108      13.581  -2.010  32.073  1.00  4.49     0.004 C 
HETATM    8  O4  RAP A 108       8.538  -0.513  33.026  1.00 10.60    -0.281 OA
HETATM    9  C5  RAP A 108      12.253  -2.442  32.668  1.00  4.19     0.024 C 
HETATM   10  O5  RAP A 108       8.168  -2.723  30.795  1.00 10.76    -0.332 OA
HETATM   11  C6  RAP A 108      11.153  -2.326  31.658  1.00  3.25     0.105 C 
HETATM   12  N7  RAP A 108      11.076  -0.917  31.239  1.00  8.46    -0.307 N 
HETATM   13  C8  RAP A 108       9.934  -0.212  31.242  1.00 10.06     0.297 C 
HETATM   14  O8  RAP A 108      16.157  -8.028  22.934  1.00 18.31    -0.293 OA
HETATM   15  C9  RAP A 108       8.737  -0.690  31.818  1.00 11.13     0.279 C 
HETATM   16  C10 RAP A 108       7.662  -1.424  30.995  1.00 16.59     0.246 C 
HETATM   17  C11 RAP A 108       7.380  -0.753  29.589  1.00 10.40     0.059 C 
HETATM   18  O11 RAP A 108      13.028  -4.291  28.967  1.00  9.49    -0.296 OA
HETATM   19  C12 RAP A 108       6.543  -1.684  28.682  1.00 12.17     0.008 C 
HETATM   20  C13 RAP A 108       7.143  -3.083  28.656  1.00 12.80     0.030 C 
HETATM   21  C14 RAP A 108       7.454  -3.638  30.042  1.00 10.37     0.121 C 
HETATM   22  C15 RAP A 108       8.371  -4.841  29.918  1.00  5.94     0.064 C 
HETATM   23  C16 RAP A 108       7.765  -6.105  29.319  1.00  9.79     0.136 C 
HETATM   24  C17 RAP A 108       8.791  -7.213  29.218  1.00 15.52    -0.017 C 
HETATM   25  C18 RAP A 108       9.163  -7.622  28.012  1.00 14.38    -0.006 C 
HETATM   26  C19 RAP A 108      10.166  -8.664  27.752  1.00  9.73    -0.001 C 
HETATM   27  C20 RAP A 108      10.414  -9.022  26.500  1.00 10.26    -0.000 C 
HETATM   28  C21 RAP A 108      11.480  -9.989  26.177  1.00 11.40    -0.005 C 
HETATM   29  C22 RAP A 108      11.874 -10.200  24.935  1.00 17.77    -0.026 C 
HETATM   30  C23 RAP A 108      13.033 -11.095  24.554  1.00 15.64     0.022 C 
HETATM   31  C24 RAP A 108      13.994 -10.241  23.745  1.00 14.68     0.012 C 
HETATM   32  C25 RAP A 108      14.449  -8.932  24.363  1.00 11.87     0.061 C 
HETATM   33  C26 RAP A 108      14.984  -7.987  23.296  1.00 11.65     0.180 C 
HETATM   34  C27 RAP A 108      13.996  -6.983  22.712  1.00  8.13     0.203 C 
HETATM   35  C28 RAP A 108      13.837  -5.690  23.574  1.00 10.80     0.163 C 
HETATM   36  C29 RAP A 108      12.874  -5.858  24.766  1.00  9.60    -0.019 C 
HETATM   37  C30 RAP A 108      13.284  -5.871  26.034  1.00  8.55    -0.025 C 
HETATM   38  C31 RAP A 108      12.465  -5.984  27.327  1.00  8.43     0.079 C 
HETATM   39  C32 RAP A 108      12.351  -4.608  27.984  1.00 10.69     0.157 C 
HETATM   40  C33 RAP A 108      11.390  -3.633  27.313  1.00  6.51     0.095 C 
HETATM   41  C34 RAP A 108      11.957  -2.231  27.229  1.00  9.62     0.132 C 
HETATM   42  C43 RAP A 108       6.750   0.670  29.646  1.00 11.25     0.005 C 
HETATM   43  C44 RAP A 108       9.289  -7.789  30.556  1.00 14.40     0.029 C 
HETATM   44  C45 RAP A 108      12.557 -12.289  23.739  1.00  9.23     0.005 C 
HETATM   45  C46 RAP A 108      15.488  -9.157  25.464  1.00 15.99     0.008 C 
HETATM   46  C47 RAP A 108      11.419  -6.023  24.373  1.00 14.60     0.029 C 
HETATM   47  C48 RAP A 108      13.175  -6.956  28.281  1.00  9.37     0.013 C 
ENDROOT
BRANCH  41  48
HETATM   48  C35 RAP A 108      11.346  -1.251  26.207  1.00  9.58     0.028 C 
HETATM   49  C49 RAP A 108      10.314  -0.353  26.827  1.00  8.29     0.003 C 
BRANCH  48  50
HETATM   50  C36 RAP A 108      10.766  -1.973  24.993  1.00 10.31     0.003 C 
BRANCH  50  51
HETATM   51  C37 RAP A 108      11.581  -1.935  23.698  1.00 22.90     0.003 C 
HETATM   52  C38 RAP A 108      13.067  -2.153  24.006  1.00 14.17     0.032 C 
HETATM   53  C39 RAP A 108      13.959  -2.012  22.771  1.00 34.20     0.142 C 
HETATM   54  C40 RAP A 108      13.439  -2.945  21.624  1.00 38.24     0.138 C 
HETATM   55  C41 RAP A 108      11.937  -2.763  21.327  1.00 16.32     0.032 C 
HETATM   56  C42 RAP A 108      11.112  -2.889  22.600  1.00 14.05     0.003 C 
BRANCH  53  57
HETATM   57  O12 RAP A 108      15.251  -2.396  23.167  1.00 30.82    -0.352 OA
HETATM   58  C52 RAP A 108      16.107  -1.384  23.572  1.00 28.14     0.174 C 
ENDBRANCH  53  57
BRANCH  54  59
HETATM   59  O13 RAP A 108      14.184  -2.685  20.436  1.00 28.84    -0.382 OA
HETATM   60  HO3 RAP A 108      14.521  -1.780  20.455  1.00 13.32     0.210 HD
ENDBRANCH  54  59
ENDBRANCH  50  51
ENDBRANCH  48  50
ENDBRANCH  41  48
BRANCH  35  61
HETATM   61  O10 RAP A 108      15.139  -5.324  24.049  1.00 12.16    -0.378 OA
HETATM   62  HO1 RAP A 108      15.653  -4.869  23.365  1.00 13.32     0.211 HD
ENDBRANCH  35  61
BRANCH  16  63
HETATM   63  O6  RAP A 108       6.446  -1.452  31.748  1.00 14.16    -0.358 OA
HETATM   64  HO6 RAP A 108       5.940  -2.220  31.467  1.00 13.32     0.213 HD
ENDBRANCH  16  63
BRANCH  34  65
HETATM   65  O9  RAP A 108      14.463  -6.573  21.454  1.00 23.09    -0.344 OA
HETATM   66  C51 RAP A 108      13.485  -6.286  20.517  1.00 19.04     0.175 C 
ENDBRANCH  34  65
BRANCH  23  67
HETATM   67  O7  RAP A 108       6.724  -6.512  30.150  1.00 20.17    -0.350 OA
HETATM   68  C50 RAP A 108       5.545  -6.897  29.517  1.00 28.36     0.175 C 
ENDBRANCH  23  67
TORSDOF 9
ENDMDL
MODEL 4
REMARK VINA RESULT:    -5.702      2.962      8.898
REMARK INTER + INTRA:         -10.582
REMARK INTER:                  -8.333
REMARK INTRA:                  -2.249
REMARK UNBOUND:                -2.380
REMARK  9 active torsions:
REMARK  status: ('A' for Active; 'I' for Inactive)
REMARK    1  A    between atoms: O6_12  and  C10_19 
REMARK    2  A    between atoms: O7_14  and  C16_29 
REMARK    3  A    between atoms: O9_18  and  C27_40 
REMARK    4  A    between atoms: O10_20  and  C28_41 
REMARK    5  A    between atoms: O12_24  and  C39_52 
REMARK    6  A    between atoms: O13_26  and  C40_53 
REMARK    7  A    between atoms: C34_47  and  C35_48 
REMARK    8  A    between atoms: C35_48  and  C36_49 
REMARK    9  A    between atoms: C36_49  and  C37_50 
ROOT
HETATM    1  C1  RAP A 108       8.425   2.677  27.909  1.00  5.98     0.292 C 
HETATM    2  O1  RAP A 108       9.279   1.819  28.655  1.00  9.08    -0.302 OA
HETATM    3  C2  RAP A 108       7.402   3.590  28.583  1.00  6.42     0.171 C 
HETATM    4  O2  RAP A 108       8.506   2.649  26.683  1.00 14.08    -0.262 OA
HETATM    5  C3  RAP A 108       7.408   4.977  27.957  1.00  5.50     0.033 C 
HETATM    6  O3  RAP A 108       5.839   2.404  30.408  1.00 10.38    -0.264 OA
HETATM    7  C4  RAP A 108       8.604   5.826  28.366  1.00  4.49     0.004 C 
HETATM    8  O4  RAP A 108       6.266   4.119  32.862  1.00 10.60    -0.281 OA
HETATM    9  C5  RAP A 108       8.645   5.886  29.882  1.00  4.19     0.024 C 
HETATM   10  O5  RAP A 108       9.034   2.591  32.927  1.00 10.76    -0.332 OA
HETATM   11  C6  RAP A 108       8.740   4.511  30.469  1.00  3.25     0.105 C 
HETATM   12  N7  RAP A 108       7.555   3.754  30.033  1.00  8.46    -0.307 N 
HETATM   13  C8  RAP A 108       6.755   3.090  30.881  1.00 10.06     0.297 C 
HETATM   14  O8  RAP A 108      17.608   0.534  24.208  1.00 18.31    -0.293 OA
HETATM   15  C9  RAP A 108       6.862   3.201  32.285  1.00 11.13     0.279 C 
HETATM   16  C10 RAP A 108       7.691   2.217  33.129  1.00 16.59     0.246 C 
HETATM   17  C11 RAP A 108       7.502   0.705  32.698  1.00 10.40     0.059 C 
HETATM   18  O11 RAP A 108      11.708   3.478  28.292  1.00  9.49    -0.296 OA
HETATM   19  C12 RAP A 108       8.573  -0.201  33.348  1.00 12.17     0.008 C 
HETATM   20  C13 RAP A 108       9.962   0.390  33.150  1.00 12.80     0.030 C 
HETATM   21  C14 RAP A 108      10.053   1.867  33.519  1.00 10.37     0.121 C 
HETATM   22  C15 RAP A 108      11.331   2.459  32.952  1.00  5.94     0.064 C 
HETATM   23  C16 RAP A 108      12.638   2.004  33.590  1.00  9.79     0.136 C 
HETATM   24  C17 RAP A 108      13.833   2.637  32.911  1.00 15.52    -0.017 C 
HETATM   25  C18 RAP A 108      14.666   1.854  32.237  1.00 14.38    -0.006 C 
HETATM   26  C19 RAP A 108      15.849   2.322  31.503  1.00  9.73    -0.001 C 
HETATM   27  C20 RAP A 108      16.634   1.433  30.911  1.00 10.26    -0.000 C 
HETATM   28  C21 RAP A 108      17.776   1.855  30.079  1.00 11.40    -0.005 C 
HETATM   29  C22 RAP A 108      18.439   1.000  29.323  1.00 17.77    -0.026 C 
HETATM   30  C23 RAP A 108      19.545   1.392  28.368  1.00 15.64     0.022 C 
HETATM   31  C24 RAP A 108      19.137   0.882  26.997  1.00 14.68     0.012 C 
HETATM   32  C25 RAP A 108      17.763   1.277  26.489  1.00 11.87     0.061 C 
HETATM   33  C26 RAP A 108      17.304   0.338  25.382  1.00 11.65     0.180 C 
HETATM   34  C27 RAP A 108      16.441  -0.847  25.802  1.00  8.13     0.203 C 
HETATM   35  C28 RAP A 108      14.925  -0.497  25.938  1.00 10.80     0.163 C 
HETATM   36  C29 RAP A 108      14.563   0.169  27.280  1.00  9.60    -0.019 C 
HETATM   37  C30 RAP A 108      14.200   1.447  27.381  1.00  8.55    -0.025 C 
HETATM   38  C31 RAP A 108      13.771   2.249  28.619  1.00  8.43     0.079 C 
HETATM   39  C32 RAP A 108      12.252   2.418  28.617  1.00 10.69     0.157 C 
HETATM   40  C33 RAP A 108      11.448   1.177  28.990  1.00  6.51     0.095 C 
HETATM   41  C34 RAP A 108      10.237   0.987  28.100  1.00  9.62     0.132 C 
HETATM   42  C43 RAP A 108       6.077   0.122  32.929  1.00 11.25     0.005 C 
HETATM   43  C44 RAP A 108      13.983   4.157  33.100  1.00 14.40     0.029 C 
HETATM   44  C45 RAP A 108      20.875   0.787  28.794  1.00  9.23     0.005 C 
HETATM   45  C46 RAP A 108      17.731   2.733  26.018  1.00 15.99     0.008 C 
HETATM   46  C47 RAP A 108      14.671  -0.751  28.482  1.00 14.60     0.029 C 
HETATM   47  C48 RAP A 108      14.446   3.628  28.574  1.00  9.37     0.013 C 
ENDROOT
BRANCH  41  48
HETATM   48  C35 RAP A 108       9.589  -0.411  28.028  1.00  9.58     0.028 C 
HETATM   49  C49 RAP A 108       9.096  -0.879  29.367  1.00  8.29     0.003 C 
BRANCH  48  50
HETATM   50  C36 RAP A 108      10.526  -1.448  27.411  1.00 10.31     0.003 C 
BRANCH  50  51
HETATM   51  C37 RAP A 108      10.308  -1.802  25.938  1.00 22.90     0.003 C 
HETATM   52  C38 RAP A 108      11.511  -1.345  25.104  1.00 14.17     0.032 C 
HETATM   53  C39 RAP A 108      11.313  -1.561  23.603  1.00 34.20     0.142 C 
HETATM   54  C40 RAP A 108      10.918  -3.052  23.323  1.00 38.24     0.138 C 
HETATM   55  C41 RAP A 108       9.732  -3.537  24.181  1.00 16.32     0.032 C 
HETATM   56  C42 RAP A 108       9.983  -3.269  25.658  1.00 14.05     0.003 C 
BRANCH  53  57
HETATM   57  O12 RAP A 108      12.540  -1.256  22.991  1.00 30.82    -0.352 OA
HETATM   58  C52 RAP A 108      13.492  -2.263  22.964  1.00 28.14     0.174 C 
ENDBRANCH  53  57
BRANCH  54  59
HETATM   59  O13 RAP A 108      10.586  -3.196  21.944  1.00 28.84    -0.382 OA
HETATM   60  HO3 RAP A 108       9.720  -3.616  21.860  1.00 13.32     0.210 HD
ENDBRANCH  54  59
ENDBRANCH  50  51
ENDBRANCH  48  50
ENDBRANCH  41  48
BRANCH  35  61
HETATM   61  O10 RAP A 108      14.584   0.377  24.854  1.00 12.16    -0.378 OA
HETATM   62  HO1 RAP A 108      13.634   0.358  24.668  1.00 13.32     0.211 HD
ENDBRANCH  35  61
BRANCH  16  63
HETATM   63  O6  RAP A 108       7.316   2.358  34.502  1.00 14.16    -0.358 OA
HETATM   64  HO6 RAP A 108       7.946   2.949  34.924  1.00 13.32     0.213 HD
ENDBRANCH  16  63
BRANCH  34  65
HETATM   65  O9  RAP A 108      16.538  -1.844  24.820  1.00 23.09    -0.344 OA
HETATM   66  C51 RAP A 108      16.353  -3.142  25.265  1.00 19.04     0.175 C 
ENDBRANCH  34  65
BRANCH  23  67
HETATM   67  O7  RAP A 108      12.611   2.385  34.931  1.00 20.17    -0.350 OA
HETATM   68  C50 RAP A 108      13.355   1.601  35.808  1.00 28.36     0.175 C 
ENDBRANCH  23  67
TORSDOF 9
ENDMDL
MODEL 5
REMARK VINA RESULT:    -5.680      4.974     11.170
REMARK INTER + INTRA:         -10.550
REMARK INTER:                  -8.092
REMARK INTRA:                  -2.458
REMARK UNBOUND:                -2.380
REMARK  9 active torsions:
REMARK  status: ('A' for Active; 'I' for Inactive)
REMARK    1  A    between atoms: O6_12  and  C10_19 
REMARK    2  A    between atoms: O7_14  and  C16_29 
REMARK    3  A    between atoms: O9_18  and  C27_40 
REMARK    4  A    between atoms: O10_20  and  C28_41 
REMARK    5  A    between atoms: O12_24  and  C39_52 
REMARK    6  A    between atoms: O13_26  and  C40_53 
REMARK    7  A    between atoms: C34_47  and  C35_48 
REMARK    8  A    between atoms: C35_48  and  C36_49 
REMARK    9  A    between atoms: C36_49  and  C37_50 
ROOT
HETATM    1  C1  RAP A 108       9.240  -3.066  30.174  1.00  5.98     0.292 C 
HETATM    2  O1  RAP A 108       8.913  -3.825  29.018  1.00  9.08    -0.302 OA
HETATM    3  C2  RAP A 108       8.408  -3.137  31.455  1.00  6.42     0.171 C 
HETATM    4  O2  RAP A 108      10.207  -2.310  30.116  1.00 14.08    -0.262 OA
HETATM    5  C3  RAP A 108       9.300  -3.219  32.685  1.00  5.50     0.033 C 
HETATM    6  O3  RAP A 108       5.765  -2.861  31.116  1.00 10.38    -0.264 OA
HETATM    7  C4  RAP A 108       9.936  -4.587  32.887  1.00  4.49     0.004 C 
HETATM    8  O4  RAP A 108       4.663  -5.349  32.436  1.00 10.60    -0.281 OA
HETATM    9  C5  RAP A 108       8.828  -5.624  32.918  1.00  4.19     0.024 C 
HETATM   10  O5  RAP A 108       5.763  -6.717  29.806  1.00 10.76    -0.332 OA
HETATM   11  C6  RAP A 108       8.029  -5.589  31.652  1.00  3.25     0.105 C 
HETATM   12  N7  RAP A 108       7.447  -4.243  31.526  1.00  8.46    -0.307 N 
HETATM   13  C8  RAP A 108       6.142  -4.025  31.302  1.00 10.06     0.297 C 
HETATM   14  O8  RAP A 108      16.732  -6.076  24.057  1.00 18.31    -0.293 OA
HETATM   15  C9  RAP A 108       5.172  -5.051  31.348  1.00 11.13     0.279 C 
HETATM   16  C10 RAP A 108       4.720  -5.815  30.091  1.00 16.59     0.246 C 
HETATM   17  C11 RAP A 108       4.486  -4.877  28.836  1.00 10.40     0.059 C 
HETATM   18  O11 RAP A 108      11.092  -5.804  29.375  1.00  9.49    -0.296 OA
HETATM   19  C12 RAP A 108       4.344  -5.704  27.538  1.00 12.17     0.008 C 
HETATM   20  C13 RAP A 108       5.475  -6.715  27.424  1.00 12.80     0.030 C 
HETATM   21  C14 RAP A 108       5.689  -7.535  28.693  1.00 10.37     0.121 C 
HETATM   22  C15 RAP A 108       7.037  -8.231  28.631  1.00  5.94     0.064 C 
HETATM   23  C16 RAP A 108       7.175  -9.367  27.625  1.00  9.79     0.136 C 
HETATM   24  C17 RAP A 108       8.572  -9.949  27.638  1.00 15.52    -0.017 C 
HETATM   25  C18 RAP A 108       9.331  -9.795  26.562  1.00 14.38    -0.006 C 
HETATM   26  C19 RAP A 108      10.714 -10.277  26.435  1.00  9.73    -0.001 C 
HETATM   27  C20 RAP A 108      11.353 -10.107  25.286  1.00 10.26    -0.000 C 
HETATM   28  C21 RAP A 108      12.772 -10.480  25.137  1.00 11.40    -0.005 C 
HETATM   29  C22 RAP A 108      13.474 -10.133  24.075  1.00 17.77    -0.026 C 
HETATM   30  C23 RAP A 108      14.957 -10.392  23.917  1.00 15.64     0.022 C 
HETATM   31  C24 RAP A 108      15.608  -9.044  23.655  1.00 14.68     0.012 C 
HETATM   32  C25 RAP A 108      15.313  -7.928  24.639  1.00 11.87     0.061 C 
HETATM   33  C26 RAP A 108      15.607  -6.568  24.019  1.00 11.65     0.180 C 
HETATM   34  C27 RAP A 108      14.434  -5.847  23.363  1.00  8.13     0.203 C 
HETATM   35  C28 RAP A 108      13.556  -5.039  24.371  1.00 10.80     0.163 C 
HETATM   36  C29 RAP A 108      12.528  -5.904  25.125  1.00  9.60    -0.019 C 
HETATM   37  C30 RAP A 108      12.622  -6.173  26.427  1.00  8.55    -0.025 C 
HETATM   38  C31 RAP A 108      11.674  -6.972  27.333  1.00  8.43     0.079 C 
HETATM   39  C32 RAP A 108      10.844  -6.009  28.182  1.00 10.69     0.157 C 
HETATM   40  C33 RAP A 108       9.726  -5.277  27.449  1.00  6.51     0.095 C 
HETATM   41  C34 RAP A 108       9.641  -3.816  27.840  1.00  9.62     0.132 C 
HETATM   42  C43 RAP A 108       3.310  -3.865  28.974  1.00 11.25     0.005 C 
HETATM   43  C44 RAP A 108       8.969 -10.705  28.919  1.00 14.40     0.029 C 
HETATM   44  C45 RAP A 108      15.225 -11.352  22.767  1.00  9.23     0.005 C 
HETATM   45  C46 RAP A 108      16.086  -8.109  25.948  1.00 15.99     0.008 C 
HETATM   46  C47 RAP A 108      11.405  -6.438  24.256  1.00 14.60     0.029 C 
HETATM   47  C48 RAP A 108      12.511  -7.881  28.248  1.00  9.37     0.013 C 
ENDROOT
BRANCH  41  48
HETATM   48  C35 RAP A 108       8.904  -2.844  26.897  1.00  9.58     0.028 C 
HETATM   49  C49 RAP A 108       7.419  -2.850  27.123  1.00  8.29     0.003 C 
BRANCH  48  50
HETATM   50  C36 RAP A 108       9.222  -3.115  25.428  1.00 10.31     0.003 C 
BRANCH  50  51
HETATM   51  C37 RAP A 108      10.612  -2.715  24.926  1.00 22.90     0.003 C 
HETATM   52  C38 RAP A 108      10.667  -2.814  23.397  1.00 14.17     0.032 C 
HETATM   53  C39 RAP A 108      12.061  -2.542  22.831  1.00 34.20     0.142 C 
HETATM   54  C40 RAP A 108      12.598  -1.169  23.365  1.00 38.24     0.138 C 
HETATM   55  C41 RAP A 108      12.516  -1.041  24.900  1.00 16.32     0.032 C 
HETATM   56  C42 RAP A 108      11.111  -1.350  25.397  1.00 14.05     0.003 C 
BRANCH  53  57
HETATM   57  O12 RAP A 108      11.924  -2.503  21.433  1.00 30.82    -0.352 OA
HETATM   58  C52 RAP A 108      12.094  -3.701  20.757  1.00 28.14     0.174 C 
ENDBRANCH  53  57
BRANCH  54  59
HETATM   59  O13 RAP A 108      13.954  -1.006  22.955  1.00 28.84    -0.382 OA
HETATM   60  HO3 RAP A 108      14.430  -1.839  23.068  1.00 13.32     0.210 HD
ENDBRANCH  54  59
ENDBRANCH  50  51
ENDBRANCH  48  50
ENDBRANCH  41  48
BRANCH  35  61
HETATM   61  O10 RAP A 108      14.441  -4.409  25.307  1.00 12.16    -0.378 OA
HETATM   62  HO1 RAP A 108      14.321  -3.448  25.318  1.00 13.32     0.211 HD
ENDBRANCH  35  61
BRANCH  16  63
HETATM   63  O6  RAP A 108       3.503  -6.507  30.385  1.00 14.16    -0.358 OA
HETATM   64  HO6 RAP A 108       2.803  -5.854  30.475  1.00 13.32     0.213 HD
ENDBRANCH  16  63
BRANCH  34  65
HETATM   65  O9  RAP A 108      14.938  -4.923  22.436  1.00 23.09    -0.344 OA
HETATM   66  C51 RAP A 108      15.240  -5.435  21.185  1.00 19.04     0.175 C 
ENDBRANCH  34  65
BRANCH  23  67
HETATM   67  O7  RAP A 108       6.257 -10.356  27.972  1.00 20.17    -0.350 OA
HETATM   68  C50 RAP A 108       5.509 -10.896  26.929  1.00 28.36     0.175 C 
ENDBRANCH  23  67
TORSDOF 9
ENDMDL
MODEL 6
REMARK VINA RESULT:    -5.671      3.095      6.086
REMARK INTER + INTRA:         -10.537
REMARK INTER:                  -8.167
REMARK INTRA:                  -2.371
REMARK UNBOUND:                -2.380
REMARK  9 active torsions:
REMARK  status: ('A' for Active; 'I' for Inactive)
REMARK    1  A    between atoms: O6_12  and  C10_19 
REMARK    2  A    between atoms: O7_14  and  C16_29 
REMARK    3  A    between atoms: O9_18  and  C27_40 
REMARK    4  A    between atoms: O10_20  and  C28_41 
REMARK    5  A    between atoms: O12_24  and  C39_52 
REMARK    6  A    between atoms: O13_26  and  C40_53 
REMARK    7  A    between atoms: C34_47  and  C35_48 
REMARK    8  A    between atoms: C35_48  and  C36_49 
REMARK    9  A    between atoms: C36_49  and  C37_50 
ROOT
HETATM    1  C1  RAP A 108      14.624  -5.395  28.417  1.00  5.98     0.292 C 
HETATM    2  O1  RAP A 108      13.605  -4.626  27.790  1.00  9.08    -0.302 OA
HETATM    3  C2  RAP A 108      15.965  -4.786  28.826  1.00  6.42     0.171 C 
HETATM    4  O2  RAP A 108      14.415  -6.592  28.601  1.00 14.08    -0.262 OA
HETATM    5  C3  RAP A 108      16.379  -5.254  30.213  1.00  5.50     0.033 C 
HETATM    6  O3  RAP A 108      17.192  -3.347  26.929  1.00 10.38    -0.264 OA
HETATM    7  C4  RAP A 108      15.603  -4.586  31.340  1.00  4.49     0.004 C 
HETATM    8  O4  RAP A 108      17.643  -0.689  28.300  1.00 10.60    -0.281 OA
HETATM    9  C5  RAP A 108      15.741  -3.083  31.182  1.00  4.19     0.024 C 
HETATM   10  O5  RAP A 108      14.538  -0.379  27.788  1.00 10.76    -0.332 OA
HETATM   11  C6  RAP A 108      15.232  -2.637  29.846  1.00  3.25     0.105 C 
HETATM   12  N7  RAP A 108      16.027  -3.321  28.812  1.00  8.46    -0.307 N 
HETATM   13  C8  RAP A 108      16.626  -2.675  27.801  1.00 10.06     0.297 C 
HETATM   14  O8  RAP A 108       4.945  -7.911  30.030  1.00 18.31    -0.293 OA
HETATM   15  C9  RAP A 108      16.709  -1.266  27.730  1.00 11.13     0.279 C 
HETATM   16  C10 RAP A 108      15.678  -0.418  26.963  1.00 16.59     0.246 C 
HETATM   17  C11 RAP A 108      15.283  -1.029  25.557  1.00 10.40     0.059 C 
HETATM   18  O11 RAP A 108      11.884  -4.451  30.198  1.00  9.49    -0.296 OA
HETATM   19  C12 RAP A 108      14.035  -0.328  24.972  1.00 12.17     0.008 C 
HETATM   20  C13 RAP A 108      12.927  -0.256  26.014  1.00 12.80     0.030 C 
HETATM   21  C14 RAP A 108      13.396   0.276  27.364  1.00 10.37     0.121 C 
HETATM   22  C15 RAP A 108      12.354  -0.032  28.425  1.00  5.94     0.064 C 
HETATM   23  C16 RAP A 108      11.043   0.741  28.340  1.00  9.79     0.136 C 
HETATM   24  C17 RAP A 108      10.081   0.315  29.429  1.00 15.52    -0.017 C 
HETATM   25  C18 RAP A 108       8.964  -0.308  29.077  1.00 14.38    -0.006 C 
HETATM   26  C19 RAP A 108       7.950  -0.806  30.017  1.00  9.73    -0.001 C 
HETATM   27  C20 RAP A 108       6.848  -1.367  29.539  1.00 10.26    -0.000 C 
HETATM   28  C21 RAP A 108       5.847  -1.973  30.437  1.00 11.40    -0.005 C 
HETATM   29  C22 RAP A 108       4.854  -2.709  29.974  1.00 17.77    -0.026 C 
HETATM   30  C23 RAP A 108       3.863  -3.444  30.850  1.00 15.64     0.022 C 
HETATM   31  C24 RAP A 108       3.926  -4.907  30.445  1.00 14.68     0.012 C 
HETATM   32  C25 RAP A 108       5.293  -5.566  30.432  1.00 11.87     0.061 C 
HETATM   33  C26 RAP A 108       5.279  -6.822  29.571  1.00 11.65     0.180 C 
HETATM   34  C27 RAP A 108       5.712  -6.661  28.117  1.00  8.13     0.203 C 
HETATM   35  C28 RAP A 108       7.261  -6.713  27.918  1.00 10.80     0.163 C 
HETATM   36  C29 RAP A 108       7.966  -5.376  28.217  1.00  9.60    -0.019 C 
HETATM   37  C30 RAP A 108       8.761  -5.195  29.271  1.00  8.55    -0.025 C 
HETATM   38  C31 RAP A 108       9.567  -3.957  29.690  1.00  8.43     0.079 C 
HETATM   39  C32 RAP A 108      11.041  -4.163  29.342  1.00 10.69     0.157 C 
HETATM   40  C33 RAP A 108      11.394  -4.046  27.864  1.00  6.51     0.095 C 
HETATM   41  C34 RAP A 108      12.366  -5.119  27.417  1.00  9.62     0.132 C 
HETATM   42  C43 RAP A 108      16.431  -1.074  24.505  1.00 11.25     0.005 C 
HETATM   43  C44 RAP A 108      10.492   0.683  30.866  1.00 14.40     0.029 C 
HETATM   44  C45 RAP A 108       2.457  -2.894  30.666  1.00  9.23     0.005 C 
HETATM   45  C46 RAP A 108       5.782  -5.880  31.848  1.00 15.99     0.008 C 
HETATM   46  C47 RAP A 108       7.667  -4.276  27.217  1.00 14.60     0.029 C 
HETATM   47  C48 RAP A 108       9.415  -3.755  31.206  1.00  9.37     0.013 C 
ENDROOT
BRANCH  41  48
HETATM   48  C35 RAP A 108      12.474  -5.433  25.911  1.00  9.58     0.028 C 
HETATM   49  C49 RAP A 108      12.877  -6.857  25.655  1.00  8.29     0.003 C 
BRANCH  48  50
HETATM   50  C36 RAP A 108      13.416  -4.472  25.189  1.00 10.31     0.003 C 
BRANCH  50  51
HETATM   51  C37 RAP A 108      12.801  -3.536  24.146  1.00 22.90     0.003 C 
HETATM   52  C38 RAP A 108      13.100  -4.053  22.734  1.00 14.17     0.032 C 
HETATM   53  C39 RAP A 108      12.615  -3.105  21.636  1.00 34.20     0.142 C 
HETATM   54  C40 RAP A 108      11.098  -2.773  21.846  1.00 38.24     0.138 C 
HETATM   55  C41 RAP A 108      10.775  -2.285  23.273  1.00 16.32     0.032 C 
HETATM   56  C42 RAP A 108      11.307  -3.259  24.314  1.00 14.05     0.003 C 
BRANCH  53  57
HETATM   57  O12 RAP A 108      12.805  -3.777  20.417  1.00 30.82    -0.352 OA
HETATM   58  C52 RAP A 108      13.328  -5.059  20.486  1.00 28.14     0.174 C 
ENDBRANCH  53  57
BRANCH  54  59
HETATM   59  O13 RAP A 108      10.705  -1.770  20.911  1.00 28.84    -0.382 OA
HETATM   60  HO3 RAP A 108       9.742  -1.740  20.852  1.00 13.32     0.210 HD
ENDBRANCH  54  59
ENDBRANCH  50  51
ENDBRANCH  48  50
ENDBRANCH  41  48
BRANCH  35  61
HETATM   61  O10 RAP A 108       7.773  -7.737  28.781  1.00 12.16    -0.378 OA
HETATM   62  HO1 RAP A 108       8.729  -7.850  28.670  1.00 13.32     0.211 HD
ENDBRANCH  35  61
BRANCH  16  63
HETATM   63  O6  RAP A 108      16.217   0.892  26.763  1.00 14.16    -0.358 OA
HETATM   64  HO6 RAP A 108      17.163   0.855  26.935  1.00 13.32     0.213 HD
ENDBRANCH  16  63
BRANCH  34  65
HETATM   65  O9  RAP A 108       5.174  -7.718  27.368  1.00 23.09    -0.344 OA
HETATM   66  C51 RAP A 108       4.133  -7.380  26.520  1.00 19.04     0.175 C 
ENDBRANCH  34  65
BRANCH  23  67
HETATM   67  O7  RAP A 108      11.337   2.095  28.485  1.00 20.17    -0.350 OA
HETATM   68  C50 RAP A 108      10.291   2.982  28.245  1.00 28.36     0.175 C 
ENDBRANCH  23  67
TORSDOF 9
ENDMDL
MODEL 7
REMARK VINA RESULT:    -5.544      4.046      8.325
REMARK INTER + INTRA:         -10.354
REMARK INTER:                  -8.224
REMARK INTRA:                  -2.129
REMARK UNBOUND:                -2.380
REMARK  9 active torsions:
REMARK  status: ('A' for Active; 'I' for Inactive)
REMARK    1  A    between atoms: O6_12  and  C10_19 
REMARK    2  A    between atoms: O7_14  and  C16_29 
REMARK    3  A    between atoms: O9_18  and  C27_40 
REMARK    4  A    between atoms: O10_20  and  C28_41 
REMARK    5  A    between atoms: O12_24  and  C39_52 
REMARK    6  A    between atoms: O13_26  and  C40_53 
REMARK    7  A    between atoms: C34_47  and  C35_48 
REMARK    8  A    between atoms: C35_48  and  C36_49 
REMARK    9  A    between atoms: C36_49  and  C37_50 
ROOT
HETATM    1  C1  RAP A 108       9.541  -3.189  26.185  1.00  5.98     0.292 C 
HETATM    2  O1  RAP A 108      10.754  -3.746  26.674  1.00  9.08    -0.302 OA
HETATM    3  C2  RAP A 108       8.213  -3.365  26.921  1.00  6.42     0.171 C 
HETATM    4  O2  RAP A 108       9.574  -2.577  25.120  1.00 14.08    -0.262 OA
HETATM    5  C3  RAP A 108       7.434  -2.058  26.964  1.00  5.50     0.033 C 
HETATM    6  O3  RAP A 108       7.631  -5.877  27.644  1.00 10.38    -0.264 OA
HETATM    7  C4  RAP A 108       7.985  -1.051  27.963  1.00  4.49     0.004 C 
HETATM    8  O4  RAP A 108       7.148  -5.616  30.619  1.00 10.60    -0.281 OA
HETATM    9  C5  RAP A 108       8.047  -1.721  29.324  1.00  4.19     0.024 C 
HETATM   10  O5  RAP A 108      10.301  -5.377  30.679  1.00 10.76    -0.332 OA
HETATM   11  C6  RAP A 108       8.903  -2.949  29.276  1.00  3.25     0.105 C 
HETATM   12  N7  RAP A 108       8.311  -3.871  28.294  1.00  8.46    -0.307 N 
HETATM   13  C8  RAP A 108       8.040  -5.157  28.564  1.00 10.06     0.297 C 
HETATM   14  O8  RAP A 108      18.238   1.611  24.202  1.00 18.31    -0.293 OA
HETATM   15  C9  RAP A 108       8.125  -5.703  29.864  1.00 11.13     0.279 C 
HETATM   16  C10 RAP A 108       9.392  -6.410  30.380  1.00 16.59     0.246 C 
HETATM   17  C11 RAP A 108      10.045  -7.386  29.317  1.00 10.40     0.059 C 
HETATM   18  O11 RAP A 108      11.862  -1.168  27.633  1.00  9.49    -0.296 OA
HETATM   19  C12 RAP A 108      11.462  -7.822  29.753  1.00 12.17     0.008 C 
HETATM   20  C13 RAP A 108      12.291  -6.612  30.158  1.00 12.80     0.030 C 
HETATM   21  C14 RAP A 108      11.573  -5.680  31.129  1.00 10.37     0.121 C 
HETATM   22  C15 RAP A 108      12.295  -4.345  31.185  1.00  5.94     0.064 C 
HETATM   23  C16 RAP A 108      13.662  -4.333  31.858  1.00  9.79     0.136 C 
HETATM   24  C17 RAP A 108      14.286  -2.955  31.814  1.00 15.52    -0.017 C 
HETATM   25  C18 RAP A 108      15.384  -2.782  31.089  1.00 14.38    -0.006 C 
HETATM   26  C19 RAP A 108      16.086  -1.501  30.925  1.00  9.73    -0.001 C 
HETATM   27  C20 RAP A 108      17.205  -1.467  30.215  1.00 10.26    -0.000 C 
HETATM   28  C21 RAP A 108      17.894  -0.194  29.936  1.00 11.40    -0.005 C 
HETATM   29  C22 RAP A 108      18.886  -0.115  29.068  1.00 17.77    -0.026 C 
HETATM   30  C23 RAP A 108      19.557   1.178  28.660  1.00 15.64     0.022 C 
HETATM   31  C24 RAP A 108      19.439   1.271  27.148  1.00 14.68     0.012 C 
HETATM   32  C25 RAP A 108      18.054   1.120  26.549  1.00 11.87     0.061 C 
HETATM   33  C26 RAP A 108      18.140   0.751  25.074  1.00 11.65     0.180 C 
HETATM   34  C27 RAP A 108      18.084  -0.735  24.735  1.00  8.13     0.203 C 
HETATM   35  C28 RAP A 108      16.631  -1.301  24.645  1.00 10.80     0.163 C 
HETATM   36  C29 RAP A 108      16.019  -1.649  26.016  1.00  9.60    -0.019 C 
HETATM   37  C30 RAP A 108      15.020  -0.956  26.561  1.00  8.55    -0.025 C 
HETATM   38  C31 RAP A 108      14.272  -1.190  27.882  1.00  8.43     0.079 C 
HETATM   39  C32 RAP A 108      12.910  -1.821  27.595  1.00 10.69     0.157 C 
HETATM   40  C33 RAP A 108      12.933  -3.294  27.204  1.00  6.51     0.095 C 
HETATM   41  C34 RAP A 108      11.988  -3.602  26.061  1.00  9.62     0.132 C 
HETATM   42  C43 RAP A 108       9.182  -8.625  28.935  1.00 11.25     0.005 C 
HETATM   43  C44 RAP A 108      13.586  -1.876  32.660  1.00 14.40     0.029 C 
HETATM   44  C45 RAP A 108      21.017   1.195  29.089  1.00  9.23     0.005 C 
HETATM   45  C46 RAP A 108      17.211   2.382  26.747  1.00 15.99     0.008 C 
HETATM   46  C47 RAP A 108      16.661  -2.840  26.701  1.00 14.60     0.029 C 
HETATM   47  C48 RAP A 108      14.079   0.161  28.589  1.00  9.37     0.013 C 
ENDROOT
BRANCH  41  48
HETATM   48  C35 RAP A 108      12.209  -4.896  25.252  1.00  9.58     0.028 C 
HETATM   49  C49 RAP A 108      11.712  -6.112  25.978  1.00  8.29     0.003 C 
BRANCH  48  50
HETATM   50  C36 RAP A 108      13.670  -5.077  24.844  1.00 10.31     0.003 C 
BRANCH  50  51
HETATM   51  C37 RAP A 108      14.039  -4.758  23.393  1.00 22.90     0.003 C 
HETATM   52  C38 RAP A 108      12.890  -4.004  22.713  1.00 14.17     0.032 C 
HETATM   53  C39 RAP A 108      13.139  -3.754  21.224  1.00 34.20     0.142 C 
HETATM   54  C40 RAP A 108      14.525  -3.049  21.024  1.00 38.24     0.138 C 
HETATM   55  C41 RAP A 108      15.685  -3.777  21.733  1.00 16.32     0.032 C 
HETATM   56  C42 RAP A 108      15.361  -4.016  23.200  1.00 14.05     0.003 C 
BRANCH  53  57
HETATM   57  O12 RAP A 108      12.098  -2.923  20.780  1.00 30.82    -0.352 OA
HETATM   58  C52 RAP A 108      11.149  -2.555  21.721  1.00 28.14     0.174 C 
ENDBRANCH  53  57
BRANCH  54  59
HETATM   59  O13 RAP A 108      14.809  -2.967  19.629  1.00 28.84    -0.382 OA
HETATM   60  HO3 RAP A 108      14.583  -2.087  19.302  1.00 13.32     0.210 HD
ENDBRANCH  54  59
ENDBRANCH  50  51
ENDBRANCH  48  50
ENDBRANCH  41  48
BRANCH  35  61
HETATM   61  O10 RAP A 108      15.823  -0.315  23.988  1.00 12.16    -0.378 OA
HETATM   62  HO1 RAP A 108      15.847  -0.420  23.026  1.00 13.32     0.211 HD
ENDBRANCH  35  61
BRANCH  16  63
HETATM   63  O6  RAP A 108       9.057  -7.159  31.552  1.00 14.16    -0.358 OA
HETATM   64  HO6 RAP A 108       8.478  -7.881  31.289  1.00 13.32     0.213 HD
ENDBRANCH  16  63
BRANCH  34  65
HETATM   65  O9  RAP A 108      18.671  -0.931  23.476  1.00 23.09    -0.344 OA
HETATM   66  C51 RAP A 108      20.020  -1.243  23.487  1.00 19.04     0.175 C 
ENDBRANCH  34  65
BRANCH  23  67
HETATM   67  O7  RAP A 108      13.485  -4.720  33.185  1.00 20.17    -0.350 OA
HETATM   68  C50 RAP A 108      14.457  -5.565  33.714  1.00 28.36     0.175 C 
ENDBRANCH  23  67
TORSDOF 9
ENDMDL
MODEL 8
REMARK VINA RESULT:    -5.496      4.236     10.381
REMARK INTER + INTRA:         -10.285
REMARK INTER:                  -8.113
REMARK INTRA:                  -2.172
REMARK UNBOUND:                -2.380
REMARK  9 active torsions:
REMARK  status: ('A' for Active; 'I' for Inactive)
REMARK    1  A    between atoms: O6_12  and  C10_19 
REMARK    2  A    between atoms: O7_14  and  C16_29 
REMARK    3  A    between atoms: O9_18  and  C27_40 
REMARK    4  A    between atoms: O10_20  and  C28_41 
REMARK    5  A    between atoms: O12_24  and  C39_52 
REMARK    6  A    between atoms: O13_26  and  C40_53 
REMARK    7  A    between atoms: C34_47  and  C35_48 
REMARK    8  A    between atoms: C35_48  and  C36_49 
REMARK    9  A    between atoms: C36_49  and  C37_50 
ROOT
HETATM    1  C1  RAP A 108      10.319   7.420  27.012  1.00  5.98     0.292 C 
HETATM    2  O1  RAP A 108      10.127   6.736  28.243  1.00  9.08    -0.302 OA
HETATM    3  C2  RAP A 108      10.979   8.797  26.942  1.00  6.42     0.171 C 
HETATM    4  O2  RAP A 108       9.909   6.886  25.983  1.00 14.08    -0.262 OA
HETATM    5  C3  RAP A 108      11.979   8.869  25.797  1.00  5.50     0.033 C 
HETATM    6  O3  RAP A 108      10.006  10.617  28.651  1.00 10.38    -0.264 OA
HETATM    7  C4  RAP A 108      13.281   8.133  26.077  1.00  4.49     0.004 C 
HETATM    8  O4  RAP A 108      12.482  11.527  30.131  1.00 10.60    -0.281 OA
HETATM    9  C5  RAP A 108      13.861   8.673  27.372  1.00  4.19     0.024 C 
HETATM   10  O5  RAP A 108      12.156   8.714  31.540  1.00 10.76    -0.332 OA
HETATM   11  C6  RAP A 108      12.895   8.497  28.503  1.00  3.25     0.105 C 
HETATM   12  N7  RAP A 108      11.666   9.233  28.163  1.00  8.46    -0.307 N 
HETATM   13  C8  RAP A 108      11.089  10.120  28.988  1.00 10.06     0.297 C 
HETATM   14  O8  RAP A 108      10.467  -2.709  27.020  1.00 18.31    -0.293 OA
HETATM   15  C9  RAP A 108      11.699  10.570  30.180  1.00 11.13     0.279 C 
HETATM   16  C10 RAP A 108      11.421   9.915  31.545  1.00 16.59     0.246 C 
HETATM   17  C11 RAP A 108       9.890   9.587  31.785  1.00 10.40     0.059 C 
HETATM   18  O11 RAP A 108      12.315   4.783  27.807  1.00  9.49    -0.296 OA
HETATM   19  C12 RAP A 108       9.701   8.661  33.008  1.00 12.17     0.008 C 
HETATM   20  C13 RAP A 108      10.643   7.468  32.923  1.00 12.80     0.030 C 
HETATM   21  C14 RAP A 108      12.087   7.853  32.620  1.00 10.37     0.121 C 
HETATM   22  C15 RAP A 108      12.866   6.623  32.188  1.00  5.94     0.064 C 
HETATM   23  C16 RAP A 108      13.150   5.581  33.263  1.00  9.79     0.136 C 
HETATM   24  C17 RAP A 108      13.897   4.393  32.695  1.00 15.52    -0.017 C 
HETATM   25  C18 RAP A 108      13.282   3.218  32.661  1.00 14.38    -0.006 C 
HETATM   26  C19 RAP A 108      13.864   1.984  32.115  1.00  9.73    -0.001 C 
HETATM   27  C20 RAP A 108      13.168   0.857  32.185  1.00 10.26    -0.000 C 
HETATM   28  C21 RAP A 108      13.661  -0.386  31.564  1.00 11.40    -0.005 C 
HETATM   29  C22 RAP A 108      12.896  -1.455  31.447  1.00 17.77    -0.026 C 
HETATM   30  C23 RAP A 108      13.308  -2.719  30.724  1.00 15.64     0.022 C 
HETATM   31  C24 RAP A 108      12.256  -2.974  29.659  1.00 14.68     0.012 C 
HETATM   32  C25 RAP A 108      11.940  -1.835  28.708  1.00 11.87     0.061 C 
HETATM   33  C26 RAP A 108      10.584  -2.043  28.046  1.00 11.65     0.180 C 
HETATM   34  C27 RAP A 108       9.386  -1.375  28.713  1.00  8.13     0.203 C 
HETATM   35  C28 RAP A 108       9.198   0.121  28.302  1.00 10.80     0.163 C 
HETATM   36  C29 RAP A 108      10.103   1.093  29.082  1.00  9.60    -0.019 C 
HETATM   37  C30 RAP A 108      11.122   1.744  28.522  1.00  8.55    -0.025 C 
HETATM   38  C31 RAP A 108      12.086   2.770  29.136  1.00  8.43     0.079 C 
HETATM   39  C32 RAP A 108      11.693   4.176  28.685  1.00 10.69     0.157 C 
HETATM   40  C33 RAP A 108      10.452   4.761  29.349  1.00  6.51     0.095 C 
HETATM   41  C34 RAP A 108       9.555   5.480  28.363  1.00  9.62     0.132 C 
HETATM   42  C43 RAP A 108       8.953  10.827  31.886  1.00 11.25     0.005 C 
HETATM   43  C44 RAP A 108      15.338   4.669  32.232  1.00 14.40     0.029 C 
HETATM   44  C45 RAP A 108      13.398  -3.895  31.686  1.00  9.23     0.005 C 
HETATM   45  C46 RAP A 108      13.038  -1.656  27.657  1.00 15.99     0.008 C 
HETATM   46  C47 RAP A 108       9.746   1.236  30.550  1.00 14.60     0.029 C 
HETATM   47  C48 RAP A 108      13.514   2.454  28.664  1.00  9.37     0.013 C 
ENDROOT
BRANCH  41  48
HETATM   48  C35 RAP A 108       8.083   5.724  28.750  1.00  9.58     0.028 C 
HETATM   49  C49 RAP A 108       7.925   6.892  29.681  1.00  8.29     0.003 C 
BRANCH  48  50
HETATM   50  C36 RAP A 108       7.429   4.476  29.342  1.00 10.31     0.003 C 
BRANCH  50  51
HETATM   51  C37 RAP A 108       6.508   3.666  28.427  1.00 22.90     0.003 C 
HETATM   52  C38 RAP A 108       5.614   4.608  27.613  1.00 14.17     0.032 C 
HETATM   53  C39 RAP A 108       4.583   3.866  26.760  1.00 34.20     0.142 C 
HETATM   54  C40 RAP A 108       5.299   2.793  25.868  1.00 38.24     0.138 C 
HETATM   55  C41 RAP A 108       6.229   1.860  26.668  1.00 16.32     0.032 C 
HETATM   56  C42 RAP A 108       7.209   2.663  27.512  1.00 14.05     0.003 C 
BRANCH  53  57
HETATM   57  O12 RAP A 108       3.958   4.834  25.957  1.00 30.82    -0.352 OA
HETATM   58  C52 RAP A 108       3.508   5.979  26.595  1.00 28.14     0.174 C 
ENDBRANCH  53  57
BRANCH  54  59
HETATM   59  O13 RAP A 108       4.313   2.008  25.200  1.00 28.84    -0.382 OA
HETATM   60  HO3 RAP A 108       4.579   1.863  24.284  1.00 13.32     0.210 HD
ENDBRANCH  54  59
ENDBRANCH  50  51
ENDBRANCH  48  50
ENDBRANCH  41  48
BRANCH  35  61
HETATM   61  O10 RAP A 108       9.473   0.221  26.899  1.00 12.16    -0.378 OA
HETATM   62  HO1 RAP A 108       9.061   1.008  26.511  1.00 13.32     0.211 HD
ENDBRANCH  35  61
BRANCH  16  63
HETATM   63  O6  RAP A 108      11.874  10.795  32.578  1.00 14.16    -0.358 OA
HETATM   64  HO6 RAP A 108      12.618  10.377  33.021  1.00 13.32     0.213 HD
ENDBRANCH  16  63
BRANCH  34  65
HETATM   65  O9  RAP A 108       8.220  -2.050  28.322  1.00 23.09    -0.344 OA
HETATM   66  C51 RAP A 108       7.033  -1.513  28.790  1.00 19.04     0.175 C 
ENDBRANCH  34  65
BRANCH  23  67
HETATM   67  O7  RAP A 108      13.925   6.187  34.250  1.00 20.17    -0.350 OA
HETATM   68  C50 RAP A 108      13.568   5.915  35.567  1.00 28.36     0.175 C 
ENDBRANCH  23  67
TORSDOF 9
ENDMDL
MODEL 9
REMARK VINA RESULT:    -5.467      5.097     10.978
REMARK INTER + INTRA:         -10.244
REMARK INTER:                  -7.781
REMARK INTRA:                  -2.463
REMARK UNBOUND:                -2.380
REMARK  9 active torsions:
REMARK  status: ('A' for Active; 'I' for Inactive)
REMARK    1  A    between atoms: O6_12  and  C10_19 
REMARK    2  A    between atoms: O7_14  and  C16_29 
REMARK    3  A    between atoms: O9_18  and  C27_40 
REMARK    4  A    between atoms: O10_20  and  C28_41 
REMARK    5  A    between atoms: O12_24  and  C39_52 
REMARK    6  A    between atoms: O13_26  and  C40_53 
REMARK    7  A    between atoms: C34_47  and  C35_48 
REMARK    8  A    between atoms: C35_48  and  C36_49 
REMARK    9  A    between atoms: C36_49  and  C37_50 
ROOT
HETATM    1  C1  RAP A 108      11.013  -3.011  24.440  1.00  5.98     0.292 C 
HETATM    2  O1  RAP A 108      11.702  -3.781  25.416  1.00  9.08    -0.302 OA
HETATM    3  C2  RAP A 108      11.734  -2.006  23.542  1.00  6.42     0.171 C 
HETATM    4  O2  RAP A 108       9.796  -3.148  24.349  1.00 14.08    -0.262 OA
HETATM    5  C3  RAP A 108      11.256  -2.117  22.101  1.00  5.50     0.033 C 
HETATM    6  O3  RAP A 108      13.360  -0.298  24.813  1.00 10.38    -0.264 OA
HETATM    7  C4  RAP A 108      11.800  -3.335  21.369  1.00  4.49     0.004 C 
HETATM    8  O4  RAP A 108      15.994  -0.698  23.381  1.00 10.60    -0.281 OA
HETATM    9  C5  RAP A 108      13.315  -3.306  21.464  1.00  4.19     0.024 C 
HETATM   10  O5  RAP A 108      16.017  -3.374  25.066  1.00 10.76    -0.332 OA
HETATM   11  C6  RAP A 108      13.760  -3.300  22.894  1.00  3.25     0.105 C 
HETATM   12  N7  RAP A 108      13.198  -2.099  23.534  1.00  8.46    -0.307 N 
HETATM   13  C8  RAP A 108      13.939  -1.226  24.233  1.00 10.06     0.297 C 
HETATM   14  O8  RAP A 108       7.499 -12.233  26.725  1.00 18.31    -0.293 OA
HETATM   15  C9  RAP A 108      15.350  -1.271  24.270  1.00 11.13     0.279 C 
HETATM   16  C10 RAP A 108      16.122  -2.005  25.380  1.00 16.59     0.246 C 
HETATM   17  C11 RAP A 108      15.530  -1.757  26.828  1.00 10.40     0.059 C 
HETATM   18  O11 RAP A 108      11.615  -6.310  23.872  1.00  9.49    -0.296 OA
HETATM   19  C12 RAP A 108      16.128  -2.746  27.855  1.00 12.17     0.008 C 
HETATM   20  C13 RAP A 108      16.050  -4.172  27.328  1.00 12.80     0.030 C 
HETATM   21  C14 RAP A 108      16.573  -4.324  25.903  1.00 10.37     0.121 C 
HETATM   22  C15 RAP A 108      16.124  -5.658  25.332  1.00  5.94     0.064 C 
HETATM   23  C16 RAP A 108      16.767  -6.906  25.924  1.00  9.79     0.136 C 
HETATM   24  C17 RAP A 108      16.207  -8.165  25.295  1.00 15.52    -0.017 C 
HETATM   25  C18 RAP A 108      15.492  -8.985  26.054  1.00 14.38    -0.006 C 
HETATM   26  C19 RAP A 108      14.860 -10.226  25.582  1.00  9.73    -0.001 C 
HETATM   27  C20 RAP A 108      14.213 -10.990  26.451  1.00 10.26    -0.000 C 
HETATM   28  C21 RAP A 108      13.478 -12.191  26.014  1.00 11.40    -0.005 C 
HETATM   29  C22 RAP A 108      12.666 -12.843  26.825  1.00 17.77    -0.026 C 
HETATM   30  C23 RAP A 108      11.804 -14.012  26.404  1.00 15.64     0.022 C 
HETATM   31  C24 RAP A 108      10.371 -13.644  26.749  1.00 14.68     0.012 C 
HETATM   32  C25 RAP A 108       9.850 -12.318  26.226  1.00 11.87     0.061 C 
HETATM   33  C26 RAP A 108       8.633 -11.864  27.021  1.00 11.65     0.180 C 
HETATM   34  C27 RAP A 108       8.892 -10.920  28.190  1.00  8.13     0.203 C 
HETATM   35  C28 RAP A 108       9.000  -9.419  27.769  1.00 10.80     0.163 C 
HETATM   36  C29 RAP A 108      10.387  -9.030  27.222  1.00  9.60    -0.019 C 
HETATM   37  C30 RAP A 108      10.604  -8.731  25.941  1.00  8.55    -0.025 C 
HETATM   38  C31 RAP A 108      11.899  -8.286  25.245  1.00  8.43     0.079 C 
HETATM   39  C32 RAP A 108      11.851  -6.780  24.989  1.00 10.69     0.157 C 
HETATM   40  C33 RAP A 108      12.059  -5.895  26.213  1.00  6.51     0.095 C 
HETATM   41  C34 RAP A 108      11.105  -4.719  26.242  1.00  9.62     0.132 C 
HETATM   42  C43 RAP A 108      15.639  -0.293  27.348  1.00 11.25     0.005 C 
HETATM   43  C44 RAP A 108      16.558  -8.385  23.813  1.00 14.40     0.029 C 
HETATM   44  C45 RAP A 108      12.221 -15.287  27.124  1.00  9.23     0.005 C 
HETATM   45  C46 RAP A 108       9.531 -12.386  24.730  1.00 15.99     0.008 C 
HETATM   46  C47 RAP A 108      11.491  -9.031  28.262  1.00 14.60     0.029 C 
HETATM   47  C48 RAP A 108      12.026  -9.035  23.909  1.00  9.37     0.013 C 
ENDROOT
BRANCH  41  48
HETATM   48  C35 RAP A 108      10.862  -4.002  27.585  1.00  9.58     0.028 C 
HETATM   49  C49 RAP A 108      12.134  -3.787  28.354  1.00  8.29     0.003 C 
BRANCH  48  50
HETATM   50  C36 RAP A 108       9.833  -4.731  28.448  1.00 10.31     0.003 C 
BRANCH  50  51
HETATM   51  C37 RAP A 108       8.378  -4.710  27.974  1.00 22.90     0.003 C 
HETATM   52  C38 RAP A 108       7.735  -6.085  28.190  1.00 14.17     0.032 C 
HETATM   53  C39 RAP A 108       6.314  -6.175  27.630  1.00 34.20     0.142 C 
HETATM   54  C40 RAP A 108       5.440  -5.005  28.200  1.00 38.24     0.138 C 
HETATM   55  C41 RAP A 108       6.090  -3.618  28.022  1.00 16.32     0.032 C 
HETATM   56  C42 RAP A 108       7.508  -3.607  28.575  1.00 14.05     0.003 C 
BRANCH  53  57
HETATM   57  O12 RAP A 108       5.800  -7.416  28.042  1.00 30.82    -0.352 OA
HETATM   58  C52 RAP A 108       5.817  -7.677  29.403  1.00 28.14     0.174 C 
ENDBRANCH  53  57
BRANCH  54  59
HETATM   59  O13 RAP A 108       4.170  -5.011  27.551  1.00 28.84    -0.382 OA
HETATM   60  HO3 RAP A 108       4.232  -5.501  26.720  1.00 13.32     0.210 HD
ENDBRANCH  54  59
ENDBRANCH  50  51
ENDBRANCH  48  50
ENDBRANCH  41  48
BRANCH  35  61
HETATM   61  O10 RAP A 108       7.999  -9.177  26.772  1.00 12.16    -0.378 OA
HETATM   62  HO1 RAP A 108       8.228  -8.420  26.214  1.00 13.32     0.211 HD
ENDBRANCH  35  61
BRANCH  16  63
HETATM   63  O6  RAP A 108      17.486  -1.573  25.357  1.00 14.16    -0.358 OA
HETATM   64  HO6 RAP A 108      17.951  -2.016  26.072  1.00 13.32     0.213 HD
ENDBRANCH  16  63
BRANCH  34  65
HETATM   65  O9  RAP A 108       7.817 -11.011  29.087  1.00 23.09    -0.344 OA
HETATM   66  C51 RAP A 108       8.060 -10.528  30.362  1.00 19.04     0.175 C 
ENDBRANCH  34  65
BRANCH  23  67
HETATM   67  O7  RAP A 108      18.137  -6.836  25.679  1.00 20.17    -0.350 OA
HETATM   68  C50 RAP A 108      18.970  -7.196  26.734  1.00 28.36     0.175 C 
ENDBRANCH  23  67
TORSDOF 9
ENDMDL
