MODEL 1
REMARK VINA RESULT:   -10.852      0.000      0.000
REMARK INTER + INTRA:         -17.930
REMARK INTER:                 -15.610
REMARK INTRA:                  -2.320
REMARK UNBOUND:                -2.320
REMARK  9 active torsions:
REMARK  status: ('A' for Active; 'I' for Inactive)
REMARK    1  A    between atoms: O6_12  and  C10_19 
REMARK    2  A    between atoms: O7_14  and  C16_29 
REMARK    3  A    between atoms: O9_18  and  C27_40 
REMARK    4  A    between atoms: O10_20  and  C28_41 
REMARK    5  A    between atoms: O12_24  and  C39_52 
REMARK    6  A    between atoms: O13_26  and  C40_53 
REMARK    7  A    between atoms: C34_47  and  C35_48 
REMARK    8  A    between atoms: C35_48  and  C36_49 
REMARK    9  A    between atoms: C36_49  and  C37_50 
ROOT
HETATM    1  C1  RAP A 108       4.805   8.401  12.944  1.00  5.98     0.292 C 
HETATM    2  O1  RAP A 108       4.447   9.483  13.794  1.00  9.08    -0.302 OA
HETATM    3  C2  RAP A 108       4.335   6.971  13.208  1.00  6.42     0.171 C 
HETATM    4  O2  RAP A 108       5.542   8.635  11.989  1.00 14.08    -0.262 OA
HETATM    5  C3  RAP A 108       3.872   6.300  11.924  1.00  5.50     0.033 C 
HETATM    6  O3  RAP A 108       4.700   6.092  15.713  1.00 10.38    -0.264 OA
HETATM    7  C4  RAP A 108       2.511   6.780  11.440  1.00  4.49     0.004 C 
HETATM    8  O4  RAP A 108       1.921   5.208  16.517  1.00 10.60    -0.281 OA
HETATM    9  C5  RAP A 108       1.515   6.592  12.570  1.00  4.19     0.024 C 
HETATM   10  O5  RAP A 108       1.449   8.328  16.724  1.00 10.76    -0.332 OA
HETATM   11  C6  RAP A 108       1.944   7.345  13.791  1.00  3.25     0.105 C 
HETATM   12  N7  RAP A 108       3.261   6.829  14.198  1.00  8.46    -0.307 N 
HETATM   13  C8  RAP A 108       3.536   6.421  15.446  1.00 10.06     0.297 C 
HETATM   14  O8  RAP A 108       3.878  17.647   8.912  1.00 18.31    -0.293 OA
HETATM   15  C9  RAP A 108       2.546   6.274  16.442  1.00 11.13     0.279 C 
HETATM   16  C10 RAP A 108       2.215   7.392  17.447  1.00 16.59     0.246 C 
HETATM   17  C11 RAP A 108       3.499   8.112  18.032  1.00 10.40     0.059 C 
HETATM   18  O11 RAP A 108       2.459  10.642  11.924  1.00  9.49    -0.296 OA
HETATM   19  C12 RAP A 108       3.121   9.412  18.778  1.00 12.17     0.008 C 
HETATM   20  C13 RAP A 108       2.198  10.268  17.922  1.00 12.80     0.030 C 
HETATM   21  C14 RAP A 108       1.022   9.494  17.334  1.00 10.37     0.121 C 
HETATM   22  C15 RAP A 108       0.382  10.304  16.220  1.00  5.94     0.064 C 
HETATM   23  C16 RAP A 108      -0.380  11.556  16.636  1.00  9.79     0.136 C 
HETATM   24  C17 RAP A 108      -0.936  12.288  15.433  1.00 15.52    -0.017 C 
HETATM   25  C18 RAP A 108      -0.450  13.489  15.145  1.00 14.38    -0.006 C 
HETATM   26  C19 RAP A 108      -0.866  14.307  13.997  1.00  9.73    -0.001 C 
HETATM   27  C20 RAP A 108      -0.343  15.516  13.845  1.00 10.26    -0.000 C 
HETATM   28  C21 RAP A 108      -0.649  16.338  12.659  1.00 11.40    -0.005 C 
HETATM   29  C22 RAP A 108       0.015  17.447  12.392  1.00 17.77    -0.026 C 
HETATM   30  C23 RAP A 108      -0.179  18.271  11.138  1.00 15.64     0.022 C 
HETATM   31  C24 RAP A 108       1.184  18.380  10.475  1.00 14.68     0.012 C 
HETATM   32  C25 RAP A 108       1.935  17.088  10.213  1.00 11.87     0.061 C 
HETATM   33  C26 RAP A 108       3.420  17.356  10.014  1.00 11.65     0.180 C 
HETATM   34  C27 RAP A 108       4.310  17.232  11.247  1.00  8.13     0.203 C 
HETATM   35  C28 RAP A 108       4.759  15.766  11.547  1.00 10.80     0.163 C 
HETATM   36  C29 RAP A 108       3.700  14.937  12.298  1.00  9.60    -0.019 C 
HETATM   37  C30 RAP A 108       3.035  13.928  11.736  1.00  8.55    -0.025 C 
HETATM   38  C31 RAP A 108       1.991  12.982  12.346  1.00  8.43     0.079 C 
HETATM   39  C32 RAP A 108       2.638  11.629  12.644  1.00 10.69     0.157 C 
HETATM   40  C33 RAP A 108       3.562  11.591  13.856  1.00  6.51     0.095 C 
HETATM   41  C34 RAP A 108       4.826  10.800  13.592  1.00  9.62     0.132 C 
HETATM   42  C43 RAP A 108       4.415   7.217  18.918  1.00 11.25     0.005 C 
HETATM   43  C44 RAP A 108      -2.055  11.562  14.666  1.00 14.40     0.029 C 
HETATM   44  C45 RAP A 108      -0.729  19.650  11.469  1.00  9.23     0.005 C 
HETATM   45  C46 RAP A 108       1.353  16.328   9.018  1.00 15.99     0.008 C 
HETATM   46  C47 RAP A 108       3.464  15.377  13.731  1.00 14.60     0.029 C 
HETATM   47  C48 RAP A 108       0.843  12.797  11.341  1.00  9.37     0.013 C 
ENDROOT
BRANCH  41  48
HETATM   48  C35 RAP A 108       6.043  11.031  14.509  1.00  9.58     0.028 C 
HETATM   49  C49 RAP A 108       5.654  11.139  15.955  1.00  8.29     0.003 C 
BRANCH  48  50
HETATM   50  C36 RAP A 108       6.861  12.250  14.084  1.00 10.31     0.003 C 
BRANCH  50  51
HETATM   51  C37 RAP A 108       7.477  12.227  12.683  1.00 22.90     0.003 C 
HETATM   52  C38 RAP A 108       7.770  13.657  12.214  1.00 14.17     0.032 C 
HETATM   53  C39 RAP A 108       8.281  13.720  10.773  1.00 34.20     0.142 C 
HETATM   54  C40 RAP A 108       9.511  12.765  10.598  1.00 38.24     0.138 C 
HETATM   55  C41 RAP A 108       9.243  11.331  11.098  1.00 16.32     0.032 C 
HETATM   56  C42 RAP A 108       8.714  11.343  12.525  1.00 14.05     0.003 C 
BRANCH  53  57
HETATM   57  O12 RAP A 108       8.658  15.053  10.542  1.00 30.82    -0.352 OA
HETATM   58  C52 RAP A 108       9.454  15.652  11.506  1.00 28.14     0.174 C 
ENDBRANCH  53  57
BRANCH  54  59
HETATM   59  O13 RAP A 108       9.873  12.718   9.219  1.00 28.84    -0.382 OA
HETATM   60  HO3 RAP A 108       9.275  13.275   8.707  1.00 13.32     0.210 HD
ENDBRANCH  54  59
ENDBRANCH  50  51
ENDBRANCH  48  50
ENDBRANCH  41  48
BRANCH  35  61
HETATM   61  O10 RAP A 108       5.065  15.143  10.293  1.00 12.16    -0.378 OA
HETATM   62  HO1 RAP A 108       4.664  14.264  10.226  1.00 13.32     0.211 HD
ENDBRANCH  35  61
BRANCH  16  63
HETATM   63  O6  RAP A 108       1.464   6.833  18.528  1.00 14.16    -0.358 OA
HETATM   64  HO6 RAP A 108       0.766   6.287  18.154  1.00 13.32     0.213 HD
ENDBRANCH  16  63
BRANCH  34  65
HETATM   65  O9  RAP A 108       5.479  17.977  11.034  1.00 23.09    -0.344 OA
HETATM   66  C51 RAP A 108       6.431  17.894  12.036  1.00 19.04     0.175 C 
ENDBRANCH  34  65
BRANCH  23  67
HETATM   67  O7  RAP A 108      -1.430  11.160  17.463  1.00 20.17    -0.350 OA
HETATM   68  C50 RAP A 108      -1.617  11.908  18.622  1.00 28.36     0.175 C 
ENDBRANCH  23  67
TORSDOF 9
ENDMDL
MODEL 2
REMARK VINA RESULT:    -9.353      1.920      2.795
REMARK INTER + INTRA:         -15.774
REMARK INTER:                 -13.311
REMARK INTRA:                  -2.463
REMARK UNBOUND:                -2.320
REMARK  9 active torsions:
REMARK  status: ('A' for Active; 'I' for Inactive)
REMARK    1  A    between atoms: O6_12  and  C10_19 
REMARK    2  A    between atoms: O7_14  and  C16_29 
REMARK    3  A    between atoms: O9_18  and  C27_40 
REMARK    4  A    between atoms: O10_20  and  C28_41 
REMARK    5  A    between atoms: O12_24  and  C39_52 
REMARK    6  A    between atoms: O13_26  and  C40_53 
REMARK    7  A    between atoms: C34_47  and  C35_48 
REMARK    8  A    between atoms: C35_48  and  C36_49 
REMARK    9  A    between atoms: C36_49  and  C37_50 
ROOT
HETATM    1  C1  RAP A 108       4.602   8.614  12.952  1.00  5.98     0.292 C 
HETATM    2  O1  RAP A 108       4.209   9.719  13.755  1.00  9.08    -0.302 OA
HETATM    3  C2  RAP A 108       4.161   7.184  13.266  1.00  6.42     0.171 C 
HETATM    4  O2  RAP A 108       5.344   8.828  11.996  1.00 14.08    -0.262 OA
HETATM    5  C3  RAP A 108       3.728   6.454  12.003  1.00  5.50     0.033 C 
HETATM    6  O3  RAP A 108       4.517   6.411  15.806  1.00 10.38    -0.264 OA
HETATM    7  C4  RAP A 108       2.362   6.883  11.487  1.00  4.49     0.004 C 
HETATM    8  O4  RAP A 108       1.750   5.495  16.615  1.00 10.60    -0.281 OA
HETATM    9  C5  RAP A 108       1.358   6.716  12.613  1.00  4.19     0.024 C 
HETATM   10  O5  RAP A 108       1.205   8.609  16.696  1.00 10.76    -0.332 OA
HETATM   11  C6  RAP A 108       1.756   7.525  13.808  1.00  3.25     0.105 C 
HETATM   12  N7  RAP A 108       3.080   7.056  14.249  1.00  8.46    -0.307 N 
HETATM   13  C8  RAP A 108       3.349   6.702  15.514  1.00 10.06     0.297 C 
HETATM   14  O8  RAP A 108       3.510  17.674   8.555  1.00 18.31    -0.293 OA
HETATM   15  C9  RAP A 108       2.351   6.571  16.505  1.00 11.13     0.279 C 
HETATM   16  C10 RAP A 108       1.984   7.719  17.462  1.00 16.59     0.246 C 
HETATM   17  C11 RAP A 108       3.244   8.490  18.033  1.00 10.40     0.059 C 
HETATM   18  O11 RAP A 108       2.217  10.759  11.820  1.00  9.49    -0.296 OA
HETATM   19  C12 RAP A 108       2.828   9.809  18.723  1.00 12.17     0.008 C 
HETATM   20  C13 RAP A 108       1.895  10.610  17.825  1.00 12.80     0.030 C 
HETATM   21  C14 RAP A 108       0.745   9.787  17.255  1.00 10.37     0.121 C 
HETATM   22  C15 RAP A 108       0.099  10.538  16.104  1.00  5.94     0.064 C 
HETATM   23  C16 RAP A 108      -0.697  11.787  16.463  1.00  9.79     0.136 C 
HETATM   24  C17 RAP A 108      -1.254  12.460  15.227  1.00 15.52    -0.017 C 
HETATM   25  C18 RAP A 108      -0.793  13.659  14.898  1.00 14.38    -0.006 C 
HETATM   26  C19 RAP A 108      -1.214  14.423  13.715  1.00  9.73    -0.001 C 
HETATM   27  C20 RAP A 108      -0.717  15.637  13.522  1.00 10.26    -0.000 C 
HETATM   28  C21 RAP A 108      -1.028  16.405  12.302  1.00 11.40    -0.005 C 
HETATM   29  C22 RAP A 108      -0.387  17.518  11.999  1.00 17.77    -0.026 C 
HETATM   30  C23 RAP A 108      -0.584  18.288  10.712  1.00 15.64     0.022 C 
HETATM   31  C24 RAP A 108       0.782  18.404  10.059  1.00 14.68     0.012 C 
HETATM   32  C25 RAP A 108       1.566  17.120   9.856  1.00 11.87     0.061 C 
HETATM   33  C26 RAP A 108       3.047  17.415   9.663  1.00 11.65     0.180 C 
HETATM   34  C27 RAP A 108       3.925  17.359  10.909  1.00  8.13     0.203 C 
HETATM   35  C28 RAP A 108       4.404  15.917  11.270  1.00 10.80     0.163 C 
HETATM   36  C29 RAP A 108       3.355  15.093  12.041  1.00  9.60    -0.019 C 
HETATM   37  C30 RAP A 108       2.720  14.048  11.512  1.00  8.55    -0.025 C 
HETATM   38  C31 RAP A 108       1.691  13.102  12.147  1.00  8.43     0.079 C 
HETATM   39  C32 RAP A 108       2.365  11.777  12.504  1.00 10.69     0.157 C 
HETATM   40  C33 RAP A 108       3.275  11.807  13.726  1.00  6.51     0.095 C 
HETATM   41  C34 RAP A 108       4.560  11.035  13.507  1.00  9.62     0.132 C 
HETATM   42  C43 RAP A 108       4.170   7.652  18.963  1.00 11.25     0.005 C 
HETATM   43  C44 RAP A 108      -2.348  11.678  14.477  1.00 14.40     0.029 C 
HETATM   44  C45 RAP A 108      -1.170  19.667  10.984  1.00  9.23     0.005 C 
HETATM   45  C46 RAP A 108       1.015  16.302   8.685  1.00 15.99     0.008 C 
HETATM   46  C47 RAP A 108       3.093  15.582  13.453  1.00 14.60     0.029 C 
HETATM   47  C48 RAP A 108       0.559  12.852  11.138  1.00  9.37     0.013 C 
ENDROOT
BRANCH  41  48
HETATM   48  C35 RAP A 108       5.762  11.330  14.427  1.00  9.58     0.028 C 
HETATM   49  C49 RAP A 108       5.611  10.696  15.780  1.00  8.29     0.003 C 
BRANCH  48  50
HETATM   50  C36 RAP A 108       6.026  12.829  14.565  1.00 10.31     0.003 C 
BRANCH  50  51
HETATM   51  C37 RAP A 108       5.856  13.446  15.955  1.00 22.90     0.003 C 
HETATM   52  C38 RAP A 108       6.884  14.564  16.163  1.00 14.17     0.032 C 
HETATM   53  C39 RAP A 108       6.851  15.151  17.576  1.00 34.20     0.142 C 
HETATM   54  C40 RAP A 108       5.392  15.599  17.936  1.00 38.24     0.138 C 
HETATM   55  C41 RAP A 108       4.341  14.496  17.698  1.00 16.32     0.032 C 
HETATM   56  C42 RAP A 108       4.447  13.940  16.285  1.00 14.05     0.003 C 
BRANCH  53  57
HETATM   57  O12 RAP A 108       7.716  16.257  17.569  1.00 30.82    -0.352 OA
HETATM   58  C52 RAP A 108       7.418  17.276  16.677  1.00 28.14     0.174 C 
ENDBRANCH  53  57
BRANCH  54  59
HETATM   59  O13 RAP A 108       5.350  15.996  19.305  1.00 28.84    -0.382 OA
HETATM   60  HO3 RAP A 108       5.913  16.769  19.437  1.00 13.32     0.210 HD
ENDBRANCH  54  59
ENDBRANCH  50  51
ENDBRANCH  48  50
ENDBRANCH  41  48
BRANCH  35  61
HETATM   61  O10 RAP A 108       4.738  15.253  10.044  1.00 12.16    -0.378 OA
HETATM   62  HO1 RAP A 108       5.412  15.741   9.548  1.00 13.32     0.211 HD
ENDBRANCH  35  61
BRANCH  16  63
HETATM   63  O6  RAP A 108       1.233   7.185  18.556  1.00 14.16    -0.358 OA
HETATM   64  HO6 RAP A 108       0.734   7.904  18.955  1.00 13.32     0.213 HD
ENDBRANCH  16  63
BRANCH  34  65
HETATM   65  O9  RAP A 108       5.079  18.122  10.680  1.00 23.09    -0.344 OA
HETATM   66  C51 RAP A 108       5.997  18.144  11.716  1.00 19.04     0.175 C 
ENDBRANCH  34  65
BRANCH  23  67
HETATM   67  O7  RAP A 108      -1.746  11.399  17.294  1.00 20.17    -0.350 OA
HETATM   68  C50 RAP A 108      -1.962  12.185  18.422  1.00 28.36     0.175 C 
ENDBRANCH  23  67
TORSDOF 9
ENDMDL
