MODEL 1
REMARK VINA RESULT:    -5.753      0.000      0.000
REMARK INTER + INTRA:         -11.057
REMARK INTER:                  -8.275
REMARK INTRA:                  -2.782
REMARK UNBOUND:                -2.782
REMARK  9 active torsions:
REMARK  status: ('A' for Active; 'I' for Inactive)
REMARK    1  A    between atoms: O6_12  and  C10_19 
REMARK    2  A    between atoms: O7_14  and  C16_29 
REMARK    3  A    between atoms: O9_18  and  C27_40 
REMARK    4  A    between atoms: O10_20  and  C28_41 
REMARK    5  A    between atoms: O12_24  and  C39_52 
REMARK    6  A    between atoms: O13_26  and  C40_53 
REMARK    7  A    between atoms: C34_47  and  C35_48 
REMARK    8  A    between atoms: C35_48  and  C36_49 
REMARK    9  A    between atoms: C36_49  and  C37_50 
ROOT
HETATM    1  C1  RAP A 108      13.706  -3.018  -1.061  1.00  5.98     0.292 C 
HETATM    2  O1  RAP A 108      13.507  -1.968  -1.998  1.00  9.08    -0.302 OA
HETATM    3  C2  RAP A 108      14.359  -2.779   0.300  1.00  6.42     0.171 C 
HETATM    4  O2  RAP A 108      13.362  -4.153  -1.383  1.00 14.08    -0.262 OA
HETATM    5  C3  RAP A 108      13.607  -3.507   1.405  1.00  5.50     0.033 C 
HETATM    6  O3  RAP A 108      16.658  -1.405   0.238  1.00 10.38    -0.264 OA
HETATM    7  C4  RAP A 108      12.294  -2.841   1.791  1.00  4.49     0.004 C 
HETATM    8  O4  RAP A 108      16.116   0.882   2.142  1.00 10.60    -0.281 OA
HETATM    9  C5  RAP A 108      12.586  -1.397   2.158  1.00  4.19     0.024 C 
HETATM   10  O5  RAP A 108      14.382   1.932  -0.285  1.00 10.76    -0.332 OA
HETATM   11  C6  RAP A 108      13.235  -0.677   1.017  1.00  3.25     0.105 C 
HETATM   12  N7  RAP A 108      14.492  -1.374   0.702  1.00  8.46    -0.307 N 
HETATM   13  C8  RAP A 108      15.674  -0.747   0.600  1.00 10.06     0.297 C 
HETATM   14  O8  RAP A 108       5.772  -3.536  -7.338  1.00 18.31    -0.293 OA
HETATM   15  C9  RAP A 108      15.860   0.605   0.963  1.00 11.13     0.279 C 
HETATM   16  C10 RAP A 108      15.760   1.754  -0.057  1.00 16.59     0.246 C 
HETATM   17  C11 RAP A 108      16.478   1.437  -1.432  1.00 10.40     0.059 C 
HETATM   18  O11 RAP A 108      10.589  -1.740  -1.530  1.00  9.49    -0.296 OA
HETATM   19  C12 RAP A 108      16.089   2.467  -2.518  1.00 12.17     0.008 C 
HETATM   20  C13 RAP A 108      14.578   2.641  -2.569  1.00 12.80     0.030 C 
HETATM   21  C14 RAP A 108      13.945   2.873  -1.200  1.00 10.37     0.121 C 
HETATM   22  C15 RAP A 108      12.444   2.663  -1.288  1.00  5.94     0.064 C 
HETATM   23  C16 RAP A 108      11.651   3.709  -2.063  1.00  9.79     0.136 C 
HETATM   24  C17 RAP A 108      10.178   3.364  -2.106  1.00 15.52    -0.017 C 
HETATM   25  C18 RAP A 108       9.635   3.055  -3.276  1.00 14.38    -0.006 C 
HETATM   26  C19 RAP A 108       8.231   2.671  -3.473  1.00  9.73    -0.001 C 
HETATM   27  C20 RAP A 108       7.793   2.435  -4.702  1.00 10.26    -0.000 C 
HETATM   28  C21 RAP A 108       6.423   1.950  -4.946  1.00 11.40    -0.005 C 
HETATM   29  C22 RAP A 108       6.039   1.518  -6.133  1.00 17.77    -0.026 C 
HETATM   30  C23 RAP A 108       4.683   0.909  -6.417  1.00 15.64     0.022 C 
HETATM   31  C24 RAP A 108       4.940  -0.464  -7.014  1.00 14.68     0.012 C 
HETATM   32  C25 RAP A 108       5.848  -1.400  -6.238  1.00 11.87     0.061 C 
HETATM   33  C26 RAP A 108       6.395  -2.496  -7.142  1.00 11.65     0.180 C 
HETATM   34  C27 RAP A 108       7.757  -2.242  -7.779  1.00  8.13     0.203 C 
HETATM   35  C28 RAP A 108       8.959  -2.606  -6.849  1.00 10.80     0.163 C 
HETATM   36  C29 RAP A 108       9.298  -1.509  -5.821  1.00  9.60    -0.019 C 
HETATM   37  C30 RAP A 108       9.085  -1.649  -4.513  1.00  8.55    -0.025 C 
HETATM   38  C31 RAP A 108       9.400  -0.685  -3.360  1.00  8.43     0.079 C 
HETATM   39  C32 RAP A 108      10.650  -1.163  -2.621  1.00 10.69     0.157 C 
HETATM   40  C33 RAP A 108      11.973  -0.931  -3.341  1.00  6.51     0.095 C 
HETATM   41  C34 RAP A 108      12.904  -2.122  -3.235  1.00  9.62     0.132 C 
HETATM   42  C43 RAP A 108      18.026   1.282  -1.353  1.00 11.25     0.005 C 
HETATM   43  C44 RAP A 108       9.435   3.439  -0.760  1.00 14.40     0.029 C 
HETATM   44  C45 RAP A 108       3.886   1.775  -7.382  1.00  9.23     0.005 C 
HETATM   45  C46 RAP A 108       5.136  -2.000  -5.023  1.00 15.99     0.008 C 
HETATM   46  C47 RAP A 108       9.882  -0.247  -6.426  1.00 14.60     0.029 C 
HETATM   47  C48 RAP A 108       8.205  -0.659  -2.395  1.00  9.37     0.013 C 
ENDROOT
BRANCH  41  48
HETATM   48  C35 RAP A 108      14.055  -2.248  -4.253  1.00  9.58     0.028 C 
HETATM   49  C49 RAP A 108      15.230  -1.386  -3.892  1.00  8.29     0.003 C 
BRANCH  48  50
HETATM   50  C36 RAP A 108      13.596  -1.956  -5.680  1.00 10.31     0.003 C 
BRANCH  50  51
HETATM   51  C37 RAP A 108      13.225  -3.155  -6.557  1.00 22.90     0.003 C 
HETATM   52  C38 RAP A 108      12.178  -4.021  -5.848  1.00 14.17     0.032 C 
HETATM   53  C39 RAP A 108      11.844  -5.302  -6.614  1.00 34.20     0.142 C 
HETATM   54  C40 RAP A 108      11.439  -4.954  -8.088  1.00 38.24     0.138 C 
HETATM   55  C41 RAP A 108      12.466  -4.053  -8.804  1.00 16.32     0.032 C 
HETATM   56  C42 RAP A 108      12.772  -2.813  -7.976  1.00 14.05     0.003 C 
BRANCH  53  57
HETATM   57  O12 RAP A 108      10.768  -5.902  -5.939  1.00 30.82    -0.352 OA
HETATM   58  C52 RAP A 108      11.044  -6.470  -4.705  1.00 28.14     0.174 C 
ENDBRANCH  53  57
BRANCH  54  59
HETATM   59  O13 RAP A 108      11.285  -6.164  -8.828  1.00 28.84    -0.382 OA
HETATM   60  HO3 RAP A 108      12.146  -6.584  -8.947  1.00 13.32     0.210 HD
ENDBRANCH  54  59
ENDBRANCH  50  51
ENDBRANCH  48  50
ENDBRANCH  41  48
BRANCH  35  61
HETATM   61  O10 RAP A 108       8.625  -3.823  -6.169  1.00 12.16    -0.378 OA
HETATM   62  HO1 RAP A 108       7.817  -4.220  -6.526  1.00 13.32     0.211 HD
ENDBRANCH  35  61
BRANCH  16  63
HETATM   63  O6  RAP A 108      16.346   2.928   0.513  1.00 14.16    -0.358 OA
HETATM   64  HO6 RAP A 108      17.194   3.076   0.084  1.00 13.32     0.213 HD
ENDBRANCH  16  63
BRANCH  34  65
HETATM   65  O9  RAP A 108       7.875  -3.045  -8.923  1.00 23.09    -0.344 OA
HETATM   66  C51 RAP A 108       8.937  -2.743  -9.759  1.00 19.04     0.175 C 
ENDBRANCH  34  65
BRANCH  23  67
HETATM   67  O7  RAP A 108      11.822   4.934  -1.421  1.00 20.17    -0.350 OA
HETATM   68  C50 RAP A 108      11.691   6.070  -2.215  1.00 28.36     0.175 C 
ENDBRANCH  23  67
TORSDOF 9
ENDMDL
MODEL 2
REMARK VINA RESULT:    -5.714      1.672      3.112
REMARK INTER + INTRA:         -11.001
REMARK INTER:                  -8.253
REMARK INTRA:                  -2.748
REMARK UNBOUND:                -2.782
REMARK  9 active torsions:
REMARK  status: ('A' for Active; 'I' for Inactive)
REMARK    1  A    between atoms: O6_12  and  C10_19 
REMARK    2  A    between atoms: O7_14  and  C16_29 
REMARK    3  A    between atoms: O9_18  and  C27_40 
REMARK    4  A    between atoms: O10_20  and  C28_41 
REMARK    5  A    between atoms: O12_24  and  C39_52 
REMARK    6  A    between atoms: O13_26  and  C40_53 
REMARK    7  A    between atoms: C34_47  and  C35_48 
REMARK    8  A    between atoms: C35_48  and  C36_49 
REMARK    9  A    between atoms: C36_49  and  C37_50 
ROOT
HETATM    1  C1  RAP A 108      13.704  -3.065  -1.029  1.00  5.98     0.292 C 
HETATM    2  O1  RAP A 108      13.523  -2.008  -1.961  1.00  9.08    -0.302 OA
HETATM    3  C2  RAP A 108      14.365  -2.845   0.331  1.00  6.42     0.171 C 
HETATM    4  O2  RAP A 108      13.338  -4.192  -1.354  1.00 14.08    -0.262 OA
HETATM    5  C3  RAP A 108      13.602  -3.562   1.435  1.00  5.50     0.033 C 
HETATM    6  O3  RAP A 108      16.690  -1.515   0.269  1.00 10.38    -0.264 OA
HETATM    7  C4  RAP A 108      12.303  -2.873   1.827  1.00  4.49     0.004 C 
HETATM    8  O4  RAP A 108      16.197   0.774   2.184  1.00 10.60    -0.281 OA
HETATM    9  C5  RAP A 108      12.623  -1.437   2.200  1.00  4.19     0.024 C 
HETATM   10  O5  RAP A 108      14.477   1.867  -0.235  1.00 10.76    -0.332 OA
HETATM   11  C6  RAP A 108      13.283  -0.724   1.060  1.00  3.25     0.105 C 
HETATM   12  N7  RAP A 108      14.526  -1.445   0.739  1.00  8.46    -0.307 N 
HETATM   13  C8  RAP A 108      15.719  -0.840   0.636  1.00 10.06     0.297 C 
HETATM   14  O8  RAP A 108       5.746  -3.405  -7.288  1.00 18.31    -0.293 OA
HETATM   15  C9  RAP A 108      15.932   0.507   1.005  1.00 11.13     0.279 C 
HETATM   16  C10 RAP A 108      15.852   1.662  -0.011  1.00 16.59     0.246 C 
HETATM   17  C11 RAP A 108      16.561   1.337  -1.389  1.00 10.40     0.059 C 
HETATM   18  O11 RAP A 108      10.611  -1.726  -1.485  1.00  9.49    -0.296 OA
HETATM   19  C12 RAP A 108      16.189   2.379  -2.469  1.00 12.17     0.008 C 
HETATM   20  C13 RAP A 108      14.681   2.582  -2.516  1.00 12.80     0.030 C 
HETATM   21  C14 RAP A 108      14.056   2.820  -1.145  1.00 10.37     0.121 C 
HETATM   22  C15 RAP A 108      12.551   2.640  -1.229  1.00  5.94     0.064 C 
HETATM   23  C16 RAP A 108      11.777   3.704  -1.998  1.00  9.79     0.136 C 
HETATM   24  C17 RAP A 108      10.297   3.388  -2.038  1.00 15.52    -0.017 C 
HETATM   25  C18 RAP A 108       9.745   3.094  -3.208  1.00 14.38    -0.006 C 
HETATM   26  C19 RAP A 108       8.333   2.738  -3.404  1.00  9.73    -0.001 C 
HETATM   27  C20 RAP A 108       7.888   2.515  -4.633  1.00 10.26    -0.000 C 
HETATM   28  C21 RAP A 108       6.508   2.058  -4.875  1.00 11.40    -0.005 C 
HETATM   29  C22 RAP A 108       6.113   1.638  -6.063  1.00 17.77    -0.026 C 
HETATM   30  C23 RAP A 108       4.745   1.056  -6.346  1.00 15.64     0.022 C 
HETATM   31  C24 RAP A 108       4.974  -0.319  -6.949  1.00 14.68     0.012 C 
HETATM   32  C25 RAP A 108       5.866  -1.275  -6.179  1.00 11.87     0.061 C 
HETATM   33  C26 RAP A 108       6.390  -2.378  -7.089  1.00 11.65     0.180 C 
HETATM   34  C27 RAP A 108       7.755  -2.147  -7.728  1.00  8.13     0.203 C 
HETATM   35  C28 RAP A 108       8.951  -2.539  -6.803  1.00 10.80     0.163 C 
HETATM   36  C29 RAP A 108       9.314  -1.453  -5.771  1.00  9.60    -0.019 C 
HETATM   37  C30 RAP A 108       9.102  -1.594  -4.464  1.00  8.55    -0.025 C 
HETATM   38  C31 RAP A 108       9.438  -0.641  -3.307  1.00  8.43     0.079 C 
HETATM   39  C32 RAP A 108      10.681  -1.146  -2.573  1.00 10.69     0.157 C 
HETATM   40  C33 RAP A 108      12.006  -0.936  -3.296  1.00  6.51     0.095 C 
HETATM   41  C34 RAP A 108      12.914  -2.145  -3.197  1.00  9.62     0.132 C 
HETATM   42  C43 RAP A 108      18.105   1.152  -1.315  1.00 11.25     0.005 C 
HETATM   43  C44 RAP A 108       9.558   3.471  -0.691  1.00 14.40     0.029 C 
HETATM   44  C45 RAP A 108       3.962   1.942  -7.305  1.00  9.23     0.005 C 
HETATM   45  C46 RAP A 108       5.145  -1.866  -4.964  1.00 15.99     0.008 C 
HETATM   46  C47 RAP A 108       9.921  -0.199  -6.373  1.00 14.60     0.029 C 
HETATM   47  C48 RAP A 108       8.246  -0.596  -2.339  1.00  9.37     0.013 C 
ENDROOT
BRANCH  41  48
HETATM   48  C35 RAP A 108      14.060  -2.290  -4.218  1.00  9.58     0.028 C 
HETATM   49  C49 RAP A 108      14.205  -3.699  -4.714  1.00  8.29     0.003 C 
BRANCH  48  50
HETATM   50  C36 RAP A 108      15.389  -1.777  -3.667  1.00 10.31     0.003 C 
BRANCH  50  51
HETATM   51  C37 RAP A 108      15.974  -0.514  -4.306  1.00 22.90     0.003 C 
HETATM   52  C38 RAP A 108      17.456  -0.729  -4.632  1.00 14.17     0.032 C 
HETATM   53  C39 RAP A 108      18.138   0.532  -5.167  1.00 34.20     0.142 C 
HETATM   54  C40 RAP A 108      17.331   1.103  -6.383  1.00 38.24     0.138 C 
HETATM   55  C41 RAP A 108      15.830   1.291  -6.081  1.00 16.32     0.032 C 
HETATM   56  C42 RAP A 108      15.222   0.009  -5.529  1.00 14.05     0.003 C 
BRANCH  53  57
HETATM   57  O12 RAP A 108      19.427   0.147  -5.572  1.00 30.82    -0.352 OA
HETATM   58  C52 RAP A 108      19.516  -0.962  -6.399  1.00 28.14     0.174 C 
ENDBRANCH  53  57
BRANCH  54  59
HETATM   59  O13 RAP A 108      17.890   2.358  -6.766  1.00 28.84    -0.382 OA
HETATM   60  HO3 RAP A 108      17.284   2.815  -7.363  1.00 13.32     0.210 HD
ENDBRANCH  54  59
ENDBRANCH  50  51
ENDBRANCH  48  50
ENDBRANCH  41  48
BRANCH  35  61
HETATM   61  O10 RAP A 108       8.596  -3.752  -6.127  1.00 12.16    -0.378 OA
HETATM   62  HO1 RAP A 108       9.379  -4.272  -5.894  1.00 13.32     0.211 HD
ENDBRANCH  35  61
BRANCH  16  63
HETATM   63  O6  RAP A 108      16.462   2.822   0.562  1.00 14.16    -0.358 OA
HETATM   64  HO6 RAP A 108      17.370   2.600   0.788  1.00 13.32     0.213 HD
ENDBRANCH  16  63
BRANCH  34  65
HETATM   65  O9  RAP A 108       7.854  -2.948  -8.876  1.00 23.09    -0.344 OA
HETATM   66  C51 RAP A 108       9.053  -2.861  -9.563  1.00 19.04     0.175 C 
ENDBRANCH  34  65
BRANCH  23  67
HETATM   67  O7  RAP A 108      11.973   4.923  -1.351  1.00 20.17    -0.350 OA
HETATM   68  C50 RAP A 108      12.153   6.033  -2.171  1.00 28.36     0.175 C 
ENDBRANCH  23  67
TORSDOF 9
ENDMDL
MODEL 3
REMARK VINA RESULT:    -5.697      3.525      8.340
REMARK INTER + INTRA:         -10.978
REMARK INTER:                  -8.506
REMARK INTRA:                  -2.472
REMARK UNBOUND:                -2.782
REMARK  9 active torsions:
REMARK  status: ('A' for Active; 'I' for Inactive)
REMARK    1  A    between atoms: O6_12  and  C10_19 
REMARK    2  A    between atoms: O7_14  and  C16_29 
REMARK    3  A    between atoms: O9_18  and  C27_40 
REMARK    4  A    between atoms: O10_20  and  C28_41 
REMARK    5  A    between atoms: O12_24  and  C39_52 
REMARK    6  A    between atoms: O13_26  and  C40_53 
REMARK    7  A    between atoms: C34_47  and  C35_48 
REMARK    8  A    between atoms: C35_48  and  C36_49 
REMARK    9  A    between atoms: C36_49  and  C37_50 
ROOT
HETATM    1  C1  RAP A 108      12.880  -3.623  -4.553  1.00  5.98     0.292 C 
HETATM    2  O1  RAP A 108      11.518  -3.630  -4.148  1.00  9.08    -0.302 OA
HETATM    3  C2  RAP A 108      13.701  -4.907  -4.666  1.00  6.42     0.171 C 
HETATM    4  O2  RAP A 108      13.409  -2.538  -4.786  1.00 14.08    -0.262 OA
HETATM    5  C3  RAP A 108      14.534  -4.915  -5.939  1.00  5.50     0.033 C 
HETATM    6  O3  RAP A 108      13.573  -6.536  -2.543  1.00 10.38    -0.264 OA
HETATM    7  C4  RAP A 108      13.723  -5.186  -7.199  1.00  4.49     0.004 C 
HETATM    8  O4  RAP A 108      12.692  -9.156  -3.768  1.00 10.60    -0.281 OA
HETATM    9  C5  RAP A 108      12.970  -6.490  -7.004  1.00  4.19     0.024 C 
HETATM   10  O5  RAP A 108       9.908  -7.662  -3.917  1.00 10.76    -0.332 OA
HETATM   11  C6  RAP A 108      12.081  -6.419  -5.801  1.00  3.25     0.105 C 
HETATM   12  N7  RAP A 108      12.932  -6.156  -4.629  1.00  8.46    -0.307 N 
HETATM   13  C8  RAP A 108      12.887  -6.893  -3.509  1.00 10.06     0.297 C 
HETATM   14  O8  RAP A 108       6.691   3.529  -8.182  1.00 18.31    -0.293 OA
HETATM   15  C9  RAP A 108      12.157  -8.099  -3.412  1.00 11.13     0.279 C 
HETATM   16  C10 RAP A 108      10.717  -8.149  -2.871  1.00 16.59     0.246 C 
HETATM   17  C11 RAP A 108      10.496  -7.253  -1.584  1.00 10.40     0.059 C 
HETATM   18  O11 RAP A 108      10.431  -3.137  -6.862  1.00  9.49    -0.296 OA
HETATM   19  C12 RAP A 108       8.992  -7.085  -1.269  1.00 12.17     0.008 C 
HETATM   20  C13 RAP A 108       8.229  -6.671  -2.520  1.00 12.80     0.030 C 
HETATM   21  C14 RAP A 108       8.543  -7.534  -3.738  1.00 10.37     0.121 C 
HETATM   22  C15 RAP A 108       8.048  -6.843  -4.996  1.00  5.94     0.064 C 
HETATM   23  C16 RAP A 108       6.538  -6.761  -5.183  1.00  9.79     0.136 C 
HETATM   24  C17 RAP A 108       6.179  -6.019  -6.452  1.00 15.52    -0.017 C 
HETATM   25  C18 RAP A 108       5.558  -4.852  -6.348  1.00 14.38    -0.006 C 
HETATM   26  C19 RAP A 108       5.172  -4.003  -7.484  1.00  9.73    -0.001 C 
HETATM   27  C20 RAP A 108       4.508  -2.879  -7.252  1.00 10.26    -0.000 C 
HETATM   28  C21 RAP A 108       4.184  -1.943  -8.344  1.00 11.40    -0.005 C 
HETATM   29  C22 RAP A 108       3.709  -0.734  -8.106  1.00 17.77    -0.026 C 
HETATM   30  C23 RAP A 108       3.463   0.307  -9.176  1.00 15.64     0.022 C 
HETATM   31  C24 RAP A 108       4.259   1.537  -8.778  1.00 14.68     0.012 C 
HETATM   32  C25 RAP A 108       5.735   1.343  -8.483  1.00 11.87     0.061 C 
HETATM   33  C26 RAP A 108       6.278   2.500  -7.654  1.00 11.65     0.180 C 
HETATM   34  C27 RAP A 108       6.292   2.309  -6.141  1.00  8.13     0.203 C 
HETATM   35  C28 RAP A 108       7.546   1.535  -5.621  1.00 10.80     0.163 C 
HETATM   36  C29 RAP A 108       7.426   0.005  -5.755  1.00  9.60    -0.019 C 
HETATM   37  C30 RAP A 108       8.150  -0.707  -6.618  1.00  8.55    -0.025 C 
HETATM   38  C31 RAP A 108       8.186  -2.225  -6.848  1.00  8.43     0.079 C 
HETATM   39  C32 RAP A 108       9.440  -2.812  -6.200  1.00 10.69     0.157 C 
HETATM   40  C33 RAP A 108       9.410  -2.918  -4.680  1.00  6.51     0.095 C 
HETATM   41  C34 RAP A 108      10.722  -2.501  -4.047  1.00  9.62     0.132 C 
HETATM   42  C43 RAP A 108      11.275  -7.710  -0.315  1.00 11.25     0.005 C 
HETATM   43  C44 RAP A 108       6.552  -6.725  -7.768  1.00 14.40     0.029 C 
HETATM   44  C45 RAP A 108       1.981   0.637  -9.287  1.00  9.23     0.005 C 
HETATM   45  C46 RAP A 108       6.549   1.163  -9.767  1.00 15.99     0.008 C 
HETATM   46  C47 RAP A 108       6.399  -0.623  -4.832  1.00 14.60     0.029 C 
HETATM   47  C48 RAP A 108       8.208  -2.497  -8.360  1.00  9.37     0.013 C 
ENDROOT
BRANCH  41  48
HETATM   48  C35 RAP A 108      10.728  -2.113  -2.555  1.00  9.58     0.028 C 
HETATM   49  C49 RAP A 108      10.487  -3.294  -1.660  1.00  8.29     0.003 C 
BRANCH  48  50
HETATM   50  C36 RAP A 108       9.733  -0.996  -2.246  1.00 10.31     0.003 C 
BRANCH  50  51
HETATM   51  C37 RAP A 108       9.910   0.328  -2.993  1.00 22.90     0.003 C 
HETATM   52  C38 RAP A 108       9.282   1.472  -2.190  1.00 14.17     0.032 C 
HETATM   53  C39 RAP A 108       9.317   2.811  -2.930  1.00 34.20     0.142 C 
HETATM   54  C40 RAP A 108      10.781   3.131  -3.389  1.00 38.24     0.138 C 
HETATM   55  C41 RAP A 108      11.440   1.974  -4.168  1.00 16.32     0.032 C 
HETATM   56  C42 RAP A 108      11.346   0.671  -3.388  1.00 14.05     0.003 C 
BRANCH  53  57
HETATM   57  O12 RAP A 108       8.866   3.782  -2.020  1.00 30.82    -0.352 OA
HETATM   58  C52 RAP A 108       9.638   3.982  -0.887  1.00 28.14     0.174 C 
ENDBRANCH  53  57
BRANCH  54  59
HETATM   59  O13 RAP A 108      10.769   4.298  -4.209  1.00 28.84    -0.382 OA
HETATM   60  HO3 RAP A 108      11.295   4.142  -5.004  1.00 13.32     0.210 HD
ENDBRANCH  54  59
ENDBRANCH  50  51
ENDBRANCH  48  50
ENDBRANCH  41  48
BRANCH  35  61
HETATM   61  O10 RAP A 108       8.680   2.001  -6.365  1.00 12.16    -0.378 OA
HETATM   62  HO1 RAP A 108       8.482   2.064  -7.311  1.00 13.32     0.211 HD
ENDBRANCH  35  61
BRANCH  16  63
HETATM   63  O6  RAP A 108      10.391  -9.505  -2.553  1.00 14.16    -0.358 OA
HETATM   64  HO6 RAP A 108      11.191  -9.939  -2.244  1.00 13.32     0.213 HD
ENDBRANCH  16  63
BRANCH  34  65
HETATM   65  O9  RAP A 108       6.316   3.572  -5.530  1.00 23.09    -0.344 OA
HETATM   66  C51 RAP A 108       5.599   3.679  -4.351  1.00 19.04     0.175 C 
ENDBRANCH  34  65
BRANCH  23  67
HETATM   67  O7  RAP A 108       6.047  -8.063  -5.252  1.00 20.17    -0.350 OA
HETATM   68  C50 RAP A 108       4.905  -8.332  -4.503  1.00 28.36     0.175 C 
ENDBRANCH  23  67
TORSDOF 9
ENDMDL
MODEL 4
REMARK VINA RESULT:    -5.695     10.941     16.843
REMARK INTER + INTRA:         -10.974
REMARK INTER:                  -8.576
REMARK INTRA:                  -2.398
REMARK UNBOUND:                -2.782
REMARK  9 active torsions:
REMARK  status: ('A' for Active; 'I' for Inactive)
REMARK    1  A    between atoms: O6_12  and  C10_19 
REMARK    2  A    between atoms: O7_14  and  C16_29 
REMARK    3  A    between atoms: O9_18  and  C27_40 
REMARK    4  A    between atoms: O10_20  and  C28_41 
REMARK    5  A    between atoms: O12_24  and  C39_52 
REMARK    6  A    between atoms: O13_26  and  C40_53 
REMARK    7  A    between atoms: C34_47  and  C35_48 
REMARK    8  A    between atoms: C35_48  and  C36_49 
REMARK    9  A    between atoms: C36_49  and  C37_50 
ROOT
HETATM    1  C1  RAP A 108       2.043  -8.186  -2.226  1.00  5.98     0.292 C 
HETATM    2  O1  RAP A 108       2.809  -9.370  -2.404  1.00  9.08    -0.302 OA
HETATM    3  C2  RAP A 108       0.998  -7.734  -3.246  1.00  6.42     0.171 C 
HETATM    4  O2  RAP A 108       2.262  -7.499  -1.230  1.00 14.08    -0.262 OA
HETATM    5  C3  RAP A 108      -0.276  -7.268  -2.556  1.00  5.50     0.033 C 
HETATM    6  O3  RAP A 108       1.828  -7.698  -5.793  1.00 10.38    -0.264 OA
HETATM    7  C4  RAP A 108      -1.129  -8.405  -2.015  1.00  4.49     0.004 C 
HETATM    8  O4  RAP A 108      -0.225  -9.428  -7.185  1.00 10.60    -0.281 OA
HETATM    9  C5  RAP A 108      -1.420  -9.363  -3.157  1.00  4.19     0.024 C 
HETATM   10  O5  RAP A 108       1.383 -11.746  -5.754  1.00 10.76    -0.332 OA
HETATM   11  C6  RAP A 108      -0.148  -9.885  -3.752  1.00  3.25     0.105 C 
HETATM   12  N7  RAP A 108       0.620  -8.733  -4.251  1.00  8.46    -0.307 N 
HETATM   13  C8  RAP A 108       1.115  -8.665  -5.497  1.00 10.06     0.297 C 
HETATM   14  O8  RAP A 108       5.085 -13.287   5.980  1.00 18.31    -0.293 OA
HETATM   15  C9  RAP A 108       0.794  -9.602  -6.504  1.00 11.13     0.279 C 
HETATM   16  C10 RAP A 108       1.669 -10.836  -6.790  1.00 16.59     0.246 C 
HETATM   17  C11 RAP A 108       3.220 -10.520  -6.791  1.00 10.40     0.059 C 
HETATM   18  O11 RAP A 108       1.321 -10.955  -0.388  1.00  9.49    -0.296 OA
HETATM   19  C12 RAP A 108       4.057 -11.819  -6.768  1.00 12.17     0.008 C 
HETATM   20  C13 RAP A 108       3.558 -12.754  -5.675  1.00 12.80     0.030 C 
HETATM   21  C14 RAP A 108       2.047 -12.957  -5.691  1.00 10.37     0.121 C 
HETATM   22  C15 RAP A 108       1.600 -13.579  -4.380  1.00  5.94     0.064 C 
HETATM   23  C16 RAP A 108       2.002 -15.028  -4.137  1.00  9.79     0.136 C 
HETATM   24  C17 RAP A 108       1.528 -15.513  -2.784  1.00 15.52    -0.017 C 
HETATM   25  C18 RAP A 108       2.437 -15.806  -1.863  1.00 14.38    -0.006 C 
HETATM   26  C19 RAP A 108       2.133 -16.258  -0.499  1.00  9.73    -0.001 C 
HETATM   27  C20 RAP A 108       3.132 -16.570   0.315  1.00 10.26    -0.000 C 
HETATM   28  C21 RAP A 108       2.888 -16.933   1.723  1.00 11.40    -0.005 C 
HETATM   29  C22 RAP A 108       3.874 -17.046   2.593  1.00 17.77    -0.026 C 
HETATM   30  C23 RAP A 108       3.676 -17.307   4.070  1.00 15.64     0.022 C 
HETATM   31  C24 RAP A 108       4.374 -16.178   4.809  1.00 14.68     0.012 C 
HETATM   32  C25 RAP A 108       4.008 -14.759   4.414  1.00 11.87     0.061 C 
HETATM   33  C26 RAP A 108       5.087 -13.780   4.855  1.00 11.65     0.180 C 
HETATM   34  C27 RAP A 108       6.159 -13.433   3.827  1.00  8.13     0.203 C 
HETATM   35  C28 RAP A 108       5.734 -12.300   2.839  1.00 10.80     0.163 C 
HETATM   36  C29 RAP A 108       4.856 -12.795   1.673  1.00  9.60    -0.019 C 
HETATM   37  C30 RAP A 108       3.564 -12.489   1.556  1.00  8.55    -0.025 C 
HETATM   38  C31 RAP A 108       2.566 -12.858   0.449  1.00  8.43     0.079 C 
HETATM   39  C32 RAP A 108       2.340 -11.650  -0.460  1.00 10.69     0.157 C 
HETATM   40  C33 RAP A 108       3.477 -11.325  -1.422  1.00  6.51     0.095 C 
HETATM   41  C34 RAP A 108       3.753  -9.838  -1.505  1.00  9.62     0.132 C 
HETATM   42  C43 RAP A 108       3.705  -9.575  -7.931  1.00 11.25     0.005 C 
HETATM   43  C44 RAP A 108       0.004 -15.649  -2.618  1.00 14.40     0.029 C 
HETATM   44  C45 RAP A 108       4.260 -18.655   4.470  1.00  9.23     0.005 C 
HETATM   45  C46 RAP A 108       2.641 -14.353   4.970  1.00 15.99     0.008 C 
HETATM   46  C47 RAP A 108       5.584 -13.675   0.675  1.00 14.60     0.029 C 
HETATM   47  C48 RAP A 108       1.237 -13.275   1.098  1.00  9.37     0.013 C 
ENDROOT
BRANCH  41  48
HETATM   48  C35 RAP A 108       5.119  -9.373  -2.049  1.00  9.58     0.028 C 
HETATM   49  C49 RAP A 108       5.205  -9.490  -3.544  1.00  8.29     0.003 C 
BRANCH  48  50
HETATM   50  C36 RAP A 108       6.283 -10.108  -1.387  1.00 10.31     0.003 C 
BRANCH  50  51
HETATM   51  C37 RAP A 108       6.771  -9.578  -0.037  1.00 22.90     0.003 C 
HETATM   52  C38 RAP A 108       7.998 -10.371   0.427  1.00 14.17     0.032 C 
HETATM   53  C39 RAP A 108       8.472  -9.974   1.826  1.00 34.20     0.142 C 
HETATM   54  C40 RAP A 108       8.696  -8.424   1.897  1.00 38.24     0.138 C 
HETATM   55  C41 RAP A 108       7.483  -7.612   1.399  1.00 16.32     0.032 C 
HETATM   56  C42 RAP A 108       7.048  -8.075   0.016  1.00 14.05     0.003 C 
BRANCH  53  57
HETATM   57  O12 RAP A 108       9.681 -10.654   2.046  1.00 30.82    -0.352 OA
HETATM   58  C52 RAP A 108      10.708 -10.406   1.149  1.00 28.14     0.174 C 
ENDBRANCH  53  57
BRANCH  54  59
HETATM   59  O13 RAP A 108       8.984  -8.054   3.244  1.00 28.84    -0.382 OA
HETATM   60  HO3 RAP A 108       8.159  -7.907   3.724  1.00 13.32     0.210 HD
ENDBRANCH  54  59
ENDBRANCH  50  51
ENDBRANCH  48  50
ENDBRANCH  41  48
BRANCH  35  61
HETATM   61  O10 RAP A 108       5.023 -11.311   3.597  1.00 12.16    -0.378 OA
HETATM   62  HO1 RAP A 108       4.861 -10.512   3.074  1.00 13.32     0.211 HD
ENDBRANCH  35  61
BRANCH  16  63
HETATM   63  O6  RAP A 108       1.304 -11.372  -8.066  1.00 14.16    -0.358 OA
HETATM   64  HO6 RAP A 108       0.351 -11.498  -8.075  1.00 13.32     0.213 HD
ENDBRANCH  16  63
BRANCH  34  65
HETATM   65  O9  RAP A 108       7.298 -12.971   4.504  1.00 23.09    -0.344 OA
HETATM   66  C51 RAP A 108       8.513 -13.348   3.956  1.00 19.04     0.175 C 
ENDBRANCH  34  65
BRANCH  23  67
HETATM   67  O7  RAP A 108       1.419 -15.804  -5.137  1.00 20.17    -0.350 OA
HETATM   68  C50 RAP A 108       2.241 -16.755  -5.737  1.00 28.36     0.175 C 
ENDBRANCH  23  67
TORSDOF 9
ENDMDL
MODEL 5
REMARK VINA RESULT:    -5.679      6.161     11.873
REMARK INTER + INTRA:         -10.951
REMARK INTER:                  -9.110
REMARK INTRA:                  -1.840
REMARK UNBOUND:                -2.782
REMARK  9 active torsions:
REMARK  status: ('A' for Active; 'I' for Inactive)
REMARK    1  A    between atoms: O6_12  and  C10_19 
REMARK    2  A    between atoms: O7_14  and  C16_29 
REMARK    3  A    between atoms: O9_18  and  C27_40 
REMARK    4  A    between atoms: O10_20  and  C28_41 
REMARK    5  A    between atoms: O12_24  and  C39_52 
REMARK    6  A    between atoms: O13_26  and  C40_53 
REMARK    7  A    between atoms: C34_47  and  C35_48 
REMARK    8  A    between atoms: C35_48  and  C36_49 
REMARK    9  A    between atoms: C36_49  and  C37_50 
ROOT
HETATM    1  C1  RAP A 108       5.560  -7.486  -7.435  1.00  5.98     0.292 C 
HETATM    2  O1  RAP A 108       5.661  -6.833  -6.176  1.00  9.08    -0.302 OA
HETATM    3  C2  RAP A 108       5.980  -6.808  -8.738  1.00  6.42     0.171 C 
HETATM    4  O2  RAP A 108       5.090  -8.621  -7.461  1.00 14.08    -0.262 OA
HETATM    5  C3  RAP A 108       6.775  -7.759  -9.621  1.00  5.50     0.033 C 
HETATM    6  O3  RAP A 108       5.000  -4.342  -9.109  1.00 10.38    -0.264 OA
HETATM    7  C4  RAP A 108       8.203  -7.983  -9.145  1.00  4.49     0.004 C 
HETATM    8  O4  RAP A 108       7.495  -2.701  -9.588  1.00 10.60    -0.281 OA
HETATM    9  C5  RAP A 108       8.877  -6.629  -9.017  1.00  4.19     0.024 C 
HETATM   10  O5  RAP A 108       7.824  -3.072  -6.464  1.00 10.76    -0.332 OA
HETATM   11  C6  RAP A 108       8.129  -5.748  -8.065  1.00  3.25     0.105 C 
HETATM   12  N7  RAP A 108       6.764  -5.577  -8.589  1.00  8.46    -0.307 N 
HETATM   13  C8  RAP A 108       6.185  -4.378  -8.752  1.00 10.06     0.297 C 
HETATM   14  O8  RAP A 108       7.282 -13.086   0.829  1.00 18.31    -0.293 OA
HETATM   15  C9  RAP A 108       6.887  -3.160  -8.613  1.00 11.13     0.279 C 
HETATM   16  C10 RAP A 108       6.920  -2.375  -7.289  1.00 16.59     0.246 C 
HETATM   17  C11 RAP A 108       5.512  -2.298  -6.568  1.00 10.40     0.059 C 
HETATM   18  O11 RAP A 108       8.037  -8.359  -5.274  1.00  9.49    -0.296 OA
HETATM   19  C12 RAP A 108       5.653  -1.785  -5.117  1.00 12.17     0.008 C 
HETATM   20  C13 RAP A 108       6.746  -2.552  -4.385  1.00 12.80     0.030 C 
HETATM   21  C14 RAP A 108       8.051  -2.646  -5.168  1.00 10.37     0.121 C 
HETATM   22  C15 RAP A 108       8.939  -3.716  -4.556  1.00  5.94     0.064 C 
HETATM   23  C16 RAP A 108       9.538  -3.408  -3.189  1.00  9.79     0.136 C 
HETATM   24  C17 RAP A 108      10.368  -4.567  -2.679  1.00 15.52    -0.017 C 
HETATM   25  C18 RAP A 108       9.946  -5.222  -1.605  1.00 14.38    -0.006 C 
HETATM   26  C19 RAP A 108      10.625  -6.381  -1.010  1.00  9.73    -0.001 C 
HETATM   27  C20 RAP A 108      10.131  -6.919   0.097  1.00 10.26    -0.000 C 
HETATM   28  C21 RAP A 108      10.714  -8.142   0.679  1.00 11.40    -0.005 C 
HETATM   29  C22 RAP A 108      10.116  -8.801   1.653  1.00 17.77    -0.026 C 
HETATM   30  C23 RAP A 108      10.608 -10.118   2.214  1.00 15.64     0.022 C 
HETATM   31  C24 RAP A 108       9.462 -11.105   2.077  1.00 14.68     0.012 C 
HETATM   32  C25 RAP A 108       8.835 -11.255   0.704  1.00 11.87     0.061 C 
HETATM   33  C26 RAP A 108       7.445 -11.869   0.807  1.00 11.65     0.180 C 
HETATM   34  C27 RAP A 108       6.270 -10.898   0.870  1.00  8.13     0.203 C 
HETATM   35  C28 RAP A 108       5.793 -10.406  -0.534  1.00 10.80     0.163 C 
HETATM   36  C29 RAP A 108       6.641  -9.253  -1.105  1.00  9.60    -0.019 C 
HETATM   37  C30 RAP A 108       7.452  -9.398  -2.152  1.00  8.55    -0.025 C 
HETATM   38  C31 RAP A 108       8.325  -8.357  -2.868  1.00  8.43     0.079 C 
HETATM   39  C32 RAP A 108       7.655  -7.940  -4.177  1.00 10.69     0.157 C 
HETATM   40  C33 RAP A 108       6.450  -7.016  -4.037  1.00  6.51     0.095 C 
HETATM   41  C34 RAP A 108       5.316  -7.405  -4.963  1.00  9.62     0.132 C 
HETATM   42  C43 RAP A 108       4.418  -1.492  -7.331  1.00 11.25     0.005 C 
HETATM   43  C44 RAP A 108      11.665  -4.855  -3.457  1.00 14.40     0.029 C 
HETATM   44  C45 RAP A 108      11.021  -9.971   3.672  1.00  9.23     0.005 C 
HETATM   45  C46 RAP A 108       9.724 -12.072  -0.237  1.00 15.99     0.008 C 
HETATM   46  C47 RAP A 108       6.488  -7.939  -0.362  1.00 14.60     0.029 C 
HETATM   47  C48 RAP A 108       9.698  -8.980  -3.163  1.00  9.37     0.013 C 
ENDROOT
BRANCH  41  48
HETATM   48  C35 RAP A 108       3.898  -6.892  -4.645  1.00  9.58     0.028 C 
HETATM   49  C49 RAP A 108       3.876  -5.984  -3.449  1.00  8.29     0.003 C 
BRANCH  48  50
HETATM   50  C36 RAP A 108       2.899  -8.034  -4.467  1.00 10.31     0.003 C 
BRANCH  50  51
HETATM   51  C37 RAP A 108       2.182  -8.136  -3.119  1.00 22.90     0.003 C 
HETATM   52  C38 RAP A 108       0.664  -8.094  -3.326  1.00 14.17     0.032 C 
HETATM   53  C39 RAP A 108      -0.119  -8.074  -2.012  1.00 34.20     0.142 C 
HETATM   54  C40 RAP A 108       0.332  -9.268  -1.101  1.00 38.24     0.138 C 
HETATM   55  C41 RAP A 108       1.861  -9.344  -0.912  1.00 16.32     0.032 C 
HETATM   56  C42 RAP A 108       2.576  -9.334  -2.256  1.00 14.05     0.003 C 
BRANCH  53  57
HETATM   57  O12 RAP A 108      -1.475  -8.203  -2.353  1.00 30.82    -0.352 OA
HETATM   58  C52 RAP A 108      -1.826  -9.311  -3.108  1.00 28.14     0.174 C 
ENDBRANCH  53  57
BRANCH  54  59
HETATM   59  O13 RAP A 108      -0.290  -9.143   0.176  1.00 28.84    -0.382 OA
HETATM   60  HO3 RAP A 108      -1.202  -9.456   0.125  1.00 13.32     0.210 HD
ENDBRANCH  54  59
ENDBRANCH  50  51
ENDBRANCH  48  50
ENDBRANCH  41  48
BRANCH  35  61
HETATM   61  O10 RAP A 108       5.837 -11.529  -1.424  1.00 12.16    -0.378 OA
HETATM   62  HO1 RAP A 108       5.199 -11.435  -2.147  1.00 13.32     0.211 HD
ENDBRANCH  35  61
BRANCH  16  63
HETATM   63  O6  RAP A 108       7.379  -1.046  -7.553  1.00 14.16    -0.358 OA
HETATM   64  HO6 RAP A 108       7.468  -0.589  -6.712  1.00 13.32     0.213 HD
ENDBRANCH  16  63
BRANCH  34  65
HETATM   65  O9  RAP A 108       5.179 -11.552   1.460  1.00 23.09    -0.344 OA
HETATM   66  C51 RAP A 108       4.965 -11.268   2.799  1.00 19.04     0.175 C 
ENDBRANCH  34  65
BRANCH  23  67
HETATM   67  O7  RAP A 108      10.347  -2.282  -3.323  1.00 20.17    -0.350 OA
HETATM   68  C50 RAP A 108      10.190  -1.293  -2.356  1.00 28.36     0.175 C 
ENDBRANCH  23  67
TORSDOF 9
ENDMDL
MODEL 6
REMARK VINA RESULT:    -5.625      3.767      9.011
REMARK INTER + INTRA:         -10.873
REMARK INTER:                  -9.235
REMARK INTRA:                  -1.638
REMARK UNBOUND:                -2.782
REMARK  9 active torsions:
REMARK  status: ('A' for Active; 'I' for Inactive)
REMARK    1  A    between atoms: O6_12  and  C10_19 
REMARK    2  A    between atoms: O7_14  and  C16_29 
REMARK    3  A    between atoms: O9_18  and  C27_40 
REMARK    4  A    between atoms: O10_20  and  C28_41 
REMARK    5  A    between atoms: O12_24  and  C39_52 
REMARK    6  A    between atoms: O13_26  and  C40_53 
REMARK    7  A    between atoms: C34_47  and  C35_48 
REMARK    8  A    between atoms: C35_48  and  C36_49 
REMARK    9  A    between atoms: C36_49  and  C37_50 
ROOT
HETATM    1  C1  RAP A 108      12.189  -6.025  -3.656  1.00  5.98     0.292 C 
HETATM    2  O1  RAP A 108      10.975  -5.467  -3.171  1.00  9.08    -0.302 OA
HETATM    3  C2  RAP A 108      12.328  -7.513  -3.976  1.00  6.42     0.171 C 
HETATM    4  O2  RAP A 108      13.156  -5.278  -3.789  1.00 14.08    -0.262 OA
HETATM    5  C3  RAP A 108      13.065  -7.725  -5.290  1.00  5.50     0.033 C 
HETATM    6  O3  RAP A 108      11.468  -9.177  -2.060  1.00 10.38    -0.264 OA
HETATM    7  C4  RAP A 108      12.219  -7.424  -6.519  1.00  4.49     0.004 C 
HETATM    8  O4  RAP A 108       9.482 -10.917  -3.536  1.00 10.60    -0.281 OA
HETATM    9  C5  RAP A 108      10.952  -8.256  -6.437  1.00  4.19     0.024 C 
HETATM   10  O5  RAP A 108       7.695  -8.316  -3.329  1.00 10.76    -0.332 OA
HETATM   11  C6  RAP A 108      10.195  -7.953  -5.181  1.00  3.25     0.105 C 
HETATM   12  N7  RAP A 108      11.072  -8.268  -4.041  1.00  8.46    -0.307 N 
HETATM   13  C8  RAP A 108      10.694  -9.049  -3.018  1.00 10.06     0.297 C 
HETATM   14  O8  RAP A 108       9.971   3.578  -6.000  1.00 18.31    -0.293 OA
HETATM   15  C9  RAP A 108       9.492  -9.792  -3.021  1.00 11.13     0.279 C 
HETATM   16  C10 RAP A 108       8.190  -9.254  -2.402  1.00 16.59     0.246 C 
HETATM   17  C11 RAP A 108       8.405  -8.540  -1.005  1.00 10.40     0.059 C 
HETATM   18  O11 RAP A 108      10.235  -4.169  -5.732  1.00  9.49    -0.296 OA
HETATM   19  C12 RAP A 108       7.146  -7.752  -0.578  1.00 12.17     0.008 C 
HETATM   20  C13 RAP A 108       6.658  -6.870  -1.719  1.00 12.80     0.030 C 
HETATM   21  C14 RAP A 108       6.541  -7.607  -3.050  1.00 10.37     0.121 C 
HETATM   22  C15 RAP A 108       6.418  -6.602  -4.182  1.00  5.94     0.064 C 
HETATM   23  C16 RAP A 108       5.113  -5.818  -4.262  1.00  9.79     0.136 C 
HETATM   24  C17 RAP A 108       5.134  -4.829  -5.408  1.00 15.52    -0.017 C 
HETATM   25  C18 RAP A 108       5.118  -3.533  -5.124  1.00 14.38    -0.006 C 
HETATM   26  C19 RAP A 108       5.165  -2.456  -6.123  1.00  9.73    -0.001 C 
HETATM   27  C20 RAP A 108       5.090  -1.196  -5.716  1.00 10.26    -0.000 C 
HETATM   28  C21 RAP A 108       5.232  -0.077  -6.664  1.00 11.40    -0.005 C 
HETATM   29  C22 RAP A 108       5.365   1.171  -6.253  1.00 17.77    -0.026 C 
HETATM   30  C23 RAP A 108       5.623   2.345  -7.172  1.00 15.64     0.022 C 
HETATM   31  C24 RAP A 108       6.896   3.011  -6.679  1.00 14.68     0.012 C 
HETATM   32  C25 RAP A 108       8.118   2.130  -6.502  1.00 11.87     0.061 C 
HETATM   33  C26 RAP A 108       9.131   2.788  -5.575  1.00 11.65     0.180 C 
HETATM   34  C27 RAP A 108       9.057   2.408  -4.100  1.00  8.13     0.203 C 
HETATM   35  C28 RAP A 108       9.816   1.086  -3.757  1.00 10.80     0.163 C 
HETATM   36  C29 RAP A 108       9.007  -0.188  -4.067  1.00  9.60    -0.019 C 
HETATM   37  C30 RAP A 108       9.323  -1.027  -5.053  1.00  8.55    -0.025 C 
HETATM   38  C31 RAP A 108       8.658  -2.348  -5.467  1.00  8.43     0.079 C 
HETATM   39  C32 RAP A 108       9.503  -3.523  -4.975  1.00 10.69     0.157 C 
HETATM   40  C33 RAP A 108       9.428  -3.810  -3.480  1.00  6.51     0.095 C 
HETATM   41  C34 RAP A 108      10.786  -4.125  -2.885  1.00  9.62     0.132 C 
HETATM   42  C43 RAP A 108       8.888  -9.470   0.148  1.00 11.25     0.005 C 
HETATM   43  C44 RAP A 108       5.141  -5.441  -6.820  1.00 14.40     0.029 C 
HETATM   44  C45 RAP A 108       4.458   3.324  -7.149  1.00  9.23     0.005 C 
HETATM   45  C46 RAP A 108       8.758   1.776  -7.847  1.00 15.99     0.008 C 
HETATM   46  C47 RAP A 108       7.807  -0.400  -3.164  1.00 14.60     0.029 C 
HETATM   47  C48 RAP A 108       8.553  -2.391  -7.000  1.00  9.37     0.013 C 
ENDROOT
BRANCH  41  48
HETATM   48  C35 RAP A 108      10.969  -3.990  -1.360  1.00  9.58     0.028 C 
HETATM   49  C49 RAP A 108      12.241  -3.276  -1.002  1.00  8.29     0.003 C 
BRANCH  48  50
HETATM   50  C36 RAP A 108      10.896  -5.340  -0.649  1.00 10.31     0.003 C 
BRANCH  50  51
HETATM   51  C37 RAP A 108      11.397  -5.401   0.795  1.00 22.90     0.003 C 
HETATM   52  C38 RAP A 108      10.490  -6.313   1.629  1.00 14.17     0.032 C 
HETATM   53  C39 RAP A 108      10.861  -6.331   3.113  1.00 34.20     0.142 C 
HETATM   54  C40 RAP A 108      12.380  -6.678   3.281  1.00 38.24     0.138 C 
HETATM   55  C41 RAP A 108      13.305  -5.792   2.421  1.00 16.32     0.032 C 
HETATM   56  C42 RAP A 108      12.863  -5.799   0.964  1.00 14.05     0.003 C 
BRANCH  53  57
HETATM   57  O12 RAP A 108      10.063  -7.320   3.712  1.00 30.82    -0.352 OA
HETATM   58  C52 RAP A 108      10.327  -8.634   3.356  1.00 28.14     0.174 C 
ENDBRANCH  53  57
BRANCH  54  59
HETATM   59  O13 RAP A 108      12.743  -6.536   4.653  1.00 28.84    -0.382 OA
HETATM   60  HO3 RAP A 108      12.392  -7.279   5.160  1.00 13.32     0.210 HD
ENDBRANCH  54  59
ENDBRANCH  50  51
ENDBRANCH  48  50
ENDBRANCH  41  48
BRANCH  35  61
HETATM   61  O10 RAP A 108      11.037   1.082  -4.509  1.00 12.16    -0.378 OA
HETATM   62  HO1 RAP A 108      11.012   0.426  -5.222  1.00 13.32     0.211 HD
ENDBRANCH  35  61
BRANCH  16  63
HETATM   63  O6  RAP A 108       7.278 -10.343  -2.230  1.00 14.16    -0.358 OA
HETATM   64  HO6 RAP A 108       7.738 -11.155  -2.460  1.00 13.32     0.213 HD
ENDBRANCH  16  63
BRANCH  34  65
HETATM   65  O9  RAP A 108       9.658   3.425  -3.344  1.00 23.09    -0.344 OA
HETATM   66  C51 RAP A 108       9.669   3.225  -1.973  1.00 19.04     0.175 C 
ENDBRANCH  34  65
BRANCH  23  67
HETATM   67  O7  RAP A 108       4.079  -6.732  -4.458  1.00 20.17    -0.350 OA
HETATM   68  C50 RAP A 108       3.067  -6.729  -3.503  1.00 28.36     0.175 C 
ENDBRANCH  23  67
TORSDOF 9
ENDMDL
MODEL 7
REMARK VINA RESULT:    -5.625      8.332     14.931
REMARK INTER + INTRA:         -10.873
REMARK INTER:                  -8.166
REMARK INTRA:                  -2.707
REMARK UNBOUND:                -2.782
REMARK  9 active torsions:
REMARK  status: ('A' for Active; 'I' for Inactive)
REMARK    1  A    between atoms: O6_12  and  C10_19 
REMARK    2  A    between atoms: O7_14  and  C16_29 
REMARK    3  A    between atoms: O9_18  and  C27_40 
REMARK    4  A    between atoms: O10_20  and  C28_41 
REMARK    5  A    between atoms: O12_24  and  C39_52 
REMARK    6  A    between atoms: O13_26  and  C40_53 
REMARK    7  A    between atoms: C34_47  and  C35_48 
REMARK    8  A    between atoms: C35_48  and  C36_49 
REMARK    9  A    between atoms: C36_49  and  C37_50 
ROOT
HETATM    1  C1  RAP A 108       2.258  -8.733  -0.936  1.00  5.98     0.292 C 
HETATM    2  O1  RAP A 108       3.496  -8.943  -1.603  1.00  9.08    -0.302 OA
HETATM    3  C2  RAP A 108       0.915  -8.885  -1.650  1.00  6.42     0.171 C 
HETATM    4  O2  RAP A 108       2.287  -8.390   0.244  1.00 14.08    -0.262 OA
HETATM    5  C3  RAP A 108      -0.083  -9.643  -0.786  1.00  5.50     0.033 C 
HETATM    6  O3  RAP A 108       0.715  -7.602  -3.993  1.00 10.38    -0.264 OA
HETATM    7  C4  RAP A 108       0.181 -11.141  -0.720  1.00  4.49     0.004 C 
HETATM    8  O4  RAP A 108      -0.098  -9.811  -5.892  1.00 10.60    -0.281 OA
HETATM    9  C5  RAP A 108       0.225 -11.676  -2.140  1.00  4.19     0.024 C 
HETATM   10  O5  RAP A 108       2.942 -10.624  -5.574  1.00 10.76    -0.332 OA
HETATM   11  C6  RAP A 108       1.285 -10.982  -2.940  1.00  3.25     0.105 C 
HETATM   12  N7  RAP A 108       0.964  -9.545  -2.959  1.00  8.46    -0.307 N 
HETATM   13  C8  RAP A 108       0.898  -8.823  -4.088  1.00 10.06     0.297 C 
HETATM   14  O8  RAP A 108      10.127 -12.219   4.405  1.00 18.31    -0.293 OA
HETATM   15  C9  RAP A 108       0.949  -9.402  -5.375  1.00 11.13     0.279 C 
HETATM   16  C10 RAP A 108       2.263  -9.540  -6.165  1.00 16.59     0.246 C 
HETATM   17  C11 RAP A 108       3.179  -8.251  -6.093  1.00 10.40     0.059 C 
HETATM   18  O11 RAP A 108       4.031 -11.575  -0.347  1.00  9.49    -0.296 OA
HETATM   19  C12 RAP A 108       4.601  -8.543  -6.625  1.00 12.17     0.008 C 
HETATM   20  C13 RAP A 108       5.160  -9.806  -5.984  1.00 12.80     0.030 C 
HETATM   21  C14 RAP A 108       4.196 -10.988  -6.028  1.00 10.37     0.121 C 
HETATM   22  C15 RAP A 108       4.662 -12.064  -5.064  1.00  5.94     0.064 C 
HETATM   23  C16 RAP A 108       5.933 -12.817  -5.441  1.00  9.79     0.136 C 
HETATM   24  C17 RAP A 108       6.306 -13.832  -4.382  1.00 15.52    -0.017 C 
HETATM   25  C18 RAP A 108       7.422 -13.642  -3.690  1.00 14.38    -0.006 C 
HETATM   26  C19 RAP A 108       7.901 -14.520  -2.614  1.00  9.73    -0.001 C 
HETATM   27  C20 RAP A 108       9.061 -14.252  -2.031  1.00 10.26    -0.000 C 
HETATM   28  C21 RAP A 108       9.540 -15.041  -0.881  1.00 11.40    -0.005 C 
HETATM   29  C22 RAP A 108      10.583 -14.664  -0.165  1.00 17.77    -0.026 C 
HETATM   30  C23 RAP A 108      11.053 -15.370   1.087  1.00 15.64     0.022 C 
HETATM   31  C24 RAP A 108      11.072 -14.330   2.193  1.00 14.68     0.012 C 
HETATM   32  C25 RAP A 108       9.801 -13.532   2.417  1.00 11.87     0.061 C 
HETATM   33  C26 RAP A 108      10.096 -12.246   3.177  1.00 11.65     0.180 C 
HETATM   34  C27 RAP A 108      10.337 -10.994   2.339  1.00  8.13     0.203 C 
HETATM   35  C28 RAP A 108       9.022 -10.269   1.908  1.00 10.80     0.163 C 
HETATM   36  C29 RAP A 108       8.348 -10.898   0.673  1.00  9.60    -0.019 C 
HETATM   37  C30 RAP A 108       7.193 -11.560   0.735  1.00  8.55    -0.025 C 
HETATM   38  C31 RAP A 108       6.371 -12.204  -0.392  1.00  8.43     0.079 C 
HETATM   39  C32 RAP A 108       5.176 -11.311  -0.728  1.00 10.69     0.157 C 
HETATM   40  C33 RAP A 108       5.497 -10.047  -1.516  1.00  6.51     0.095 C 
HETATM   41  C34 RAP A 108       4.739  -8.840  -1.002  1.00  9.62     0.132 C 
HETATM   42  C43 RAP A 108       2.590  -6.979  -6.771  1.00 11.25     0.005 C 
HETATM   43  C44 RAP A 108       5.347 -15.026  -4.232  1.00 14.40     0.029 C 
HETATM   44  C45 RAP A 108      12.438 -15.971   0.889  1.00  9.23     0.005 C 
HETATM   45  C46 RAP A 108       8.733 -14.359   3.138  1.00 15.99     0.008 C 
HETATM   46  C47 RAP A 108       9.118 -10.712  -0.620  1.00 14.60     0.029 C 
HETATM   47  C48 RAP A 108       5.875 -13.579   0.080  1.00  9.37     0.013 C 
ENDROOT
BRANCH  41  48
HETATM   48  C35 RAP A 108       5.264  -7.435  -1.360  1.00  9.58     0.028 C 
HETATM   49  C49 RAP A 108       5.298  -6.520  -0.170  1.00  8.29     0.003 C 
BRANCH  48  50
HETATM   50  C36 RAP A 108       4.472  -6.798  -2.501  1.00 10.31     0.003 C 
BRANCH  50  51
HETATM   51  C37 RAP A 108       5.219  -6.528  -3.809  1.00 22.90     0.003 C 
HETATM   52  C38 RAP A 108       4.866  -5.133  -4.337  1.00 14.17     0.032 C 
HETATM   53  C39 RAP A 108       5.486  -4.838  -5.704  1.00 34.20     0.142 C 
HETATM   54  C40 RAP A 108       7.032  -5.091  -5.658  1.00 38.24     0.138 C 
HETATM   55  C41 RAP A 108       7.404  -6.478  -5.095  1.00 16.32     0.032 C 
HETATM   56  C42 RAP A 108       6.734  -6.716  -3.749  1.00 14.05     0.003 C 
BRANCH  53  57
HETATM   57  O12 RAP A 108       5.220  -3.486  -5.980  1.00 30.82    -0.352 OA
HETATM   58  C52 RAP A 108       5.546  -2.572  -4.991  1.00 28.14     0.174 C 
ENDBRANCH  53  57
BRANCH  54  59
HETATM   59  O13 RAP A 108       7.567  -4.964  -6.974  1.00 28.84    -0.382 OA
HETATM   60  HO3 RAP A 108       8.396  -5.454  -7.038  1.00 13.32     0.210 HD
ENDBRANCH  54  59
ENDBRANCH  50  51
ENDBRANCH  48  50
ENDBRANCH  41  48
BRANCH  35  61
HETATM   61  O10 RAP A 108       8.123 -10.306   3.024  1.00 12.16    -0.378 OA
HETATM   62  HO1 RAP A 108       7.859 -11.213   3.238  1.00 13.32     0.211 HD
ENDBRANCH  35  61
BRANCH  16  63
HETATM   63  O6  RAP A 108       1.950  -9.810  -7.535  1.00 14.16    -0.358 OA
HETATM   64  HO6 RAP A 108       1.968  -8.977  -8.015  1.00 13.32     0.213 HD
ENDBRANCH  16  63
BRANCH  34  65
HETATM   65  O9  RAP A 108      11.071 -10.076   3.105  1.00 23.09    -0.344 OA
HETATM   66  C51 RAP A 108      11.354  -8.871   2.483  1.00 19.04     0.175 C 
ENDBRANCH  34  65
BRANCH  23  67
HETATM   67  O7  RAP A 108       5.697 -13.472  -6.648  1.00 20.17    -0.350 OA
HETATM   68  C50 RAP A 108       6.709 -13.393  -7.599  1.00 28.36     0.175 C 
ENDBRANCH  23  67
TORSDOF 9
ENDMDL
MODEL 8
REMARK VINA RESULT:    -5.535      8.768     15.051
REMARK INTER + INTRA:         -10.745
REMARK INTER:                  -8.710
REMARK INTRA:                  -2.035
REMARK UNBOUND:                -2.782
REMARK  9 active torsions:
REMARK  status: ('A' for Active; 'I' for Inactive)
REMARK    1  A    between atoms: O6_12  and  C10_19 
REMARK    2  A    between atoms: O7_14  and  C16_29 
REMARK    3  A    between atoms: O9_18  and  C27_40 
REMARK    4  A    between atoms: O10_20  and  C28_41 
REMARK    5  A    between atoms: O12_24  and  C39_52 
REMARK    6  A    between atoms: O13_26  and  C40_53 
REMARK    7  A    between atoms: C34_47  and  C35_48 
REMARK    8  A    between atoms: C35_48  and  C36_49 
REMARK    9  A    between atoms: C36_49  and  C37_50 
ROOT
HETATM    1  C1  RAP A 108       4.138 -11.545   1.818  1.00  5.98     0.292 C 
HETATM    2  O1  RAP A 108       4.930 -11.058   0.743  1.00  9.08    -0.302 OA
HETATM    3  C2  RAP A 108       3.290 -12.811   1.694  1.00  6.42     0.171 C 
HETATM    4  O2  RAP A 108       4.123 -10.900   2.864  1.00 14.08    -0.262 OA
HETATM    5  C3  RAP A 108       3.424 -13.684   2.933  1.00  5.50     0.033 C 
HETATM    6  O3  RAP A 108       1.731 -12.932  -0.481  1.00 10.38    -0.264 OA
HETATM    7  C4  RAP A 108       4.743 -14.439   3.008  1.00  4.49     0.004 C 
HETATM    8  O4  RAP A 108       2.550 -15.558  -1.739  1.00 10.60    -0.281 OA
HETATM    9  C5  RAP A 108       4.904 -15.239   1.728  1.00  4.19     0.024 C 
HETATM   10  O5  RAP A 108       5.102 -13.880  -2.561  1.00 10.76    -0.332 OA
HETATM   11  C6  RAP A 108       4.869 -14.342   0.529  1.00  3.25     0.105 C 
HETATM   12  N7  RAP A 108       3.570 -13.650   0.524  1.00  8.46    -0.307 N 
HETATM   13  C8  RAP A 108       2.758 -13.620  -0.544  1.00 10.06     0.297 C 
HETATM   14  O8  RAP A 108      12.679  -6.534   3.950  1.00 18.31    -0.293 OA
HETATM   15  C9  RAP A 108       2.982 -14.399  -1.701  1.00 11.13     0.279 C 
HETATM   16  C10 RAP A 108       3.741 -13.856  -2.925  1.00 16.59     0.246 C 
HETATM   17  C11 RAP A 108       3.333 -12.376  -3.313  1.00 10.40     0.059 C 
HETATM   18  O11 RAP A 108       7.515 -11.943   1.894  1.00  9.49    -0.296 OA
HETATM   19  C12 RAP A 108       4.327 -11.769  -4.330  1.00 12.17     0.008 C 
HETATM   20  C13 RAP A 108       5.760 -11.974  -3.860  1.00 12.80     0.030 C 
HETATM   21  C14 RAP A 108       6.063 -13.407  -3.435  1.00 10.37     0.121 C 
HETATM   22  C15 RAP A 108       7.360 -13.444  -2.646  1.00  5.94     0.064 C 
HETATM   23  C16 RAP A 108       8.643 -13.183  -3.425  1.00  9.79     0.136 C 
HETATM   24  C17 RAP A 108       9.854 -13.212  -2.518  1.00 15.52    -0.017 C 
HETATM   25  C18 RAP A 108      10.530 -12.086  -2.330  1.00 14.38    -0.006 C 
HETATM   26  C19 RAP A 108      11.705 -11.949  -1.458  1.00  9.73    -0.001 C 
HETATM   27  C20 RAP A 108      12.326 -10.779  -1.393  1.00 10.26    -0.000 C 
HETATM   28  C21 RAP A 108      13.447 -10.560  -0.460  1.00 11.40    -0.005 C 
HETATM   29  C22 RAP A 108      13.939  -9.356  -0.236  1.00 17.77    -0.026 C 
HETATM   30  C23 RAP A 108      15.012  -9.055   0.788  1.00 15.64     0.022 C 
HETATM   31  C24 RAP A 108      14.443  -7.996   1.716  1.00 14.68     0.012 C 
HETATM   32  C25 RAP A 108      13.095  -8.281   2.352  1.00 11.87     0.061 C 
HETATM   33  C26 RAP A 108      12.441  -6.994   2.836  1.00 11.65     0.180 C 
HETATM   34  C27 RAP A 108      11.470  -6.316   1.875  1.00  8.13     0.203 C 
HETATM   35  C28 RAP A 108      10.024  -6.903   1.932  1.00 10.80     0.163 C 
HETATM   36  C29 RAP A 108       9.849  -8.193   1.107  1.00  9.60    -0.019 C 
HETATM   37  C30 RAP A 108       9.658  -9.389   1.662  1.00  8.55    -0.025 C 
HETATM   38  C31 RAP A 108       9.425 -10.753   0.996  1.00  8.43     0.079 C 
HETATM   39  C32 RAP A 108       7.943 -11.119   1.080  1.00 10.69     0.157 C 
HETATM   40  C33 RAP A 108       7.021 -10.360   0.133  1.00  6.51     0.095 C 
HETATM   41  C34 RAP A 108       5.732  -9.931   0.805  1.00  9.62     0.132 C 
HETATM   42  C43 RAP A 108       1.866 -12.200  -3.808  1.00 11.25     0.005 C 
HETATM   43  C44 RAP A 108      10.207 -14.584  -1.917  1.00 14.40     0.029 C 
HETATM   44  C45 RAP A 108      16.284  -8.556   0.117  1.00  9.23     0.005 C 
HETATM   45  C46 RAP A 108      13.211  -9.297   3.491  1.00 15.99     0.008 C 
HETATM   46  C47 RAP A 108       9.930  -7.989  -0.394  1.00 14.60     0.029 C 
HETATM   47  C48 RAP A 108      10.263 -11.813   1.729  1.00  9.37     0.013 C 
ENDROOT
BRANCH  41  48
HETATM   48  C35 RAP A 108       4.911  -8.795   0.164  1.00  9.58     0.028 C 
HETATM   49  C49 RAP A 108       4.146  -8.001   1.183  1.00  8.29     0.003 C 
BRANCH  48  50
HETATM   50  C36 RAP A 108       3.974  -9.307  -0.928  1.00 10.31     0.003 C 
BRANCH  50  51
HETATM   51  C37 RAP A 108       2.564  -8.713  -0.979  1.00 22.90     0.003 C 
HETATM   52  C38 RAP A 108       2.335  -8.018  -2.326  1.00 14.17     0.032 C 
HETATM   53  C39 RAP A 108       0.987  -7.298  -2.405  1.00 34.20     0.142 C 
HETATM   54  C40 RAP A 108      -0.171  -8.287  -2.032  1.00 38.24     0.138 C 
HETATM   55  C41 RAP A 108       0.062  -9.021  -0.696  1.00 16.32     0.032 C 
HETATM   56  C42 RAP A 108       1.429  -9.691  -0.676  1.00 14.05     0.003 C 
BRANCH  53  57
HETATM   57  O12 RAP A 108       0.847  -6.857  -3.731  1.00 30.82    -0.352 OA
HETATM   58  C52 RAP A 108       1.318  -7.704  -4.723  1.00 28.14     0.174 C 
ENDBRANCH  53  57
BRANCH  54  59
HETATM   59  O13 RAP A 108      -1.398  -7.563  -1.958  1.00 28.84    -0.382 OA
HETATM   60  HO3 RAP A 108      -1.419  -7.041  -1.147  1.00 13.32     0.210 HD
ENDBRANCH  54  59
ENDBRANCH  50  51
ENDBRANCH  48  50
ENDBRANCH  41  48
BRANCH  35  61
HETATM   61  O10 RAP A 108       9.716  -7.161   3.308  1.00 12.16    -0.378 OA
HETATM   62  HO1 RAP A 108       9.522  -8.098   3.460  1.00 13.32     0.211 HD
ENDBRANCH  35  61
BRANCH  16  63
HETATM   63  O6  RAP A 108       3.489 -14.715  -4.041  1.00 14.16    -0.358 OA
HETATM   64  HO6 RAP A 108       3.866 -14.304  -4.824  1.00 13.32     0.213 HD
ENDBRANCH  16  63
BRANCH  34  65
HETATM   65  O9  RAP A 108      11.368  -4.960   2.223  1.00 23.09    -0.344 OA
HETATM   66  C51 RAP A 108      11.979  -4.073   1.353  1.00 19.04     0.175 C 
ENDBRANCH  34  65
BRANCH  23  67
HETATM   67  O7  RAP A 108       8.764 -14.179  -4.392  1.00 20.17    -0.350 OA
HETATM   68  C50 RAP A 108       9.256 -13.779  -5.631  1.00 28.36     0.175 C 
ENDBRANCH  23  67
TORSDOF 9
ENDMDL
MODEL 9
REMARK VINA RESULT:    -5.357      7.550     12.727
REMARK INTER + INTRA:         -10.488
REMARK INTER:                  -8.083
REMARK INTRA:                  -2.405
REMARK UNBOUND:                -2.782
REMARK  9 active torsions:
REMARK  status: ('A' for Active; 'I' for Inactive)
REMARK    1  A    between atoms: O6_12  and  C10_19 
REMARK    2  A    between atoms: O7_14  and  C16_29 
REMARK    3  A    between atoms: O9_18  and  C27_40 
REMARK    4  A    between atoms: O10_20  and  C28_41 
REMARK    5  A    between atoms: O12_24  and  C39_52 
REMARK    6  A    between atoms: O13_26  and  C40_53 
REMARK    7  A    between atoms: C34_47  and  C35_48 
REMARK    8  A    between atoms: C35_48  and  C36_49 
REMARK    9  A    between atoms: C36_49  and  C37_50 
ROOT
HETATM    1  C1  RAP A 108       6.980  -4.890  -4.806  1.00  5.98     0.292 C 
HETATM    2  O1  RAP A 108       6.811  -6.273  -5.089  1.00  9.08    -0.302 OA
HETATM    3  C2  RAP A 108       7.515  -3.907  -5.847  1.00  6.42     0.171 C 
HETATM    4  O2  RAP A 108       6.710  -4.494  -3.674  1.00 14.08    -0.262 OA
HETATM    5  C3  RAP A 108       6.712  -2.615  -5.847  1.00  5.50     0.033 C 
HETATM    6  O3  RAP A 108       9.753  -4.680  -7.102  1.00 10.38    -0.264 OA
HETATM    7  C4  RAP A 108       5.346  -2.745  -6.506  1.00  4.49     0.004 C 
HETATM    8  O4  RAP A 108       8.970  -4.510 -10.018  1.00 10.60    -0.281 OA
HETATM    9  C5  RAP A 108       5.548  -3.288  -7.909  1.00  4.19     0.024 C 
HETATM   10  O5  RAP A 108       7.386  -7.154  -9.308  1.00 10.76    -0.332 OA
HETATM   11  C6  RAP A 108       6.252  -4.610  -7.874  1.00  3.25     0.105 C 
HETATM   12  N7  RAP A 108       7.558  -4.405  -7.226  1.00  8.46    -0.307 N 
HETATM   13  C8  RAP A 108       8.717  -4.812  -7.766  1.00 10.06     0.297 C 
HETATM   14  O8  RAP A 108      -0.416  -9.952  -0.085  1.00 18.31    -0.293 OA
HETATM   15  C9  RAP A 108       8.818  -5.309  -9.085  1.00 11.13     0.279 C 
HETATM   16  C10 RAP A 108       8.749  -6.812  -9.407  1.00 16.59     0.246 C 
HETATM   17  C11 RAP A 108       9.584  -7.709  -8.404  1.00 10.40     0.059 C 
HETATM   18  O11 RAP A 108       3.858  -6.140  -5.315  1.00  9.49    -0.296 OA
HETATM   19  C12 RAP A 108       9.237  -9.206  -8.569  1.00 12.17     0.008 C 
HETATM   20  C13 RAP A 108       7.728  -9.408  -8.559  1.00 12.80     0.030 C 
HETATM   21  C14 RAP A 108       6.983  -8.463  -9.497  1.00 10.37     0.121 C 
HETATM   22  C15 RAP A 108       5.503  -8.467  -9.158  1.00  5.94     0.064 C 
HETATM   23  C16 RAP A 108       4.729  -9.739  -9.485  1.00  9.79     0.136 C 
HETATM   24  C17 RAP A 108       3.280  -9.626  -9.065  1.00 15.52    -0.017 C 
HETATM   25  C18 RAP A 108       2.842 -10.409  -8.088  1.00 14.38    -0.006 C 
HETATM   26  C19 RAP A 108       1.474 -10.395  -7.551  1.00  9.73    -0.001 C 
HETATM   27  C20 RAP A 108       1.144 -11.265  -6.606  1.00 10.26    -0.000 C 
HETATM   28  C21 RAP A 108      -0.183 -11.229  -5.964  1.00 11.40    -0.005 C 
HETATM   29  C22 RAP A 108      -0.455 -11.947  -4.890  1.00 17.77    -0.026 C 
HETATM   30  C23 RAP A 108      -1.758 -11.868  -4.125  1.00 15.64     0.022 C 
HETATM   31  C24 RAP A 108      -1.399 -11.531  -2.688  1.00 14.68     0.012 C 
HETATM   32  C25 RAP A 108      -0.515 -10.319  -2.459  1.00 11.87     0.061 C 
HETATM   33  C26 RAP A 108       0.146 -10.383  -1.088  1.00 11.65     0.180 C 
HETATM   34  C27 RAP A 108       1.541 -10.995  -1.029  1.00  8.13     0.203 C 
HETATM   35  C28 RAP A 108       2.681  -9.984  -1.375  1.00 10.80     0.163 C 
HETATM   36  C29 RAP A 108       2.894  -9.788  -2.888  1.00  9.60    -0.019 C 
HETATM   37  C30 RAP A 108       2.586  -8.657  -3.524  1.00  8.55    -0.025 C 
HETATM   38  C31 RAP A 108       2.771  -8.283  -5.001  1.00  8.43     0.079 C 
HETATM   39  C32 RAP A 108       3.979  -7.357  -5.148  1.00 10.69     0.157 C 
HETATM   40  C33 RAP A 108       5.343  -8.025  -5.018  1.00  6.51     0.095 C 
HETATM   41  C34 RAP A 108       6.311  -7.203  -4.193  1.00  9.62     0.132 C 
HETATM   42  C43 RAP A 108      11.126  -7.495  -8.447  1.00 11.25     0.005 C 
HETATM   43  C44 RAP A 108       2.432  -8.612  -9.853  1.00 14.40     0.029 C 
HETATM   44  C45 RAP A 108      -2.514 -13.187  -4.196  1.00  9.23     0.005 C 
HETATM   45  C46 RAP A 108      -1.294  -9.012  -2.629  1.00 15.99     0.008 C 
HETATM   46  C47 RAP A 108       3.470 -10.998  -3.599  1.00 14.60     0.029 C 
HETATM   47  C48 RAP A 108       1.505  -7.564  -5.493  1.00  9.37     0.013 C 
ENDROOT
BRANCH  41  48
HETATM   48  C35 RAP A 108       7.542  -7.906  -3.587  1.00  9.58     0.028 C 
HETATM   49  C49 RAP A 108       7.529  -9.388  -3.832  1.00  8.29     0.003 C 
BRANCH  48  50
HETATM   50  C36 RAP A 108       7.697  -7.612  -2.096  1.00 10.31     0.003 C 
BRANCH  50  51
HETATM   51  C37 RAP A 108       6.461  -7.797  -1.212  1.00 22.90     0.003 C 
HETATM   52  C38 RAP A 108       6.707  -8.914  -0.191  1.00 14.17     0.032 C 
HETATM   53  C39 RAP A 108       5.472  -9.235   0.652  1.00 34.20     0.142 C 
HETATM   54  C40 RAP A 108       4.918  -7.926   1.313  1.00 38.24     0.138 C 
HETATM   55  C41 RAP A 108       4.699  -6.782   0.303  1.00 16.32     0.032 C 
HETATM   56  C42 RAP A 108       5.956  -6.533  -0.518  1.00 14.05     0.003 C 
BRANCH  53  57
HETATM   57  O12 RAP A 108       5.888 -10.144   1.639  1.00 30.82    -0.352 OA
HETATM   58  C52 RAP A 108       7.198 -10.590   1.564  1.00 28.14     0.174 C 
ENDBRANCH  53  57
BRANCH  54  59
HETATM   59  O13 RAP A 108       3.683  -8.218   1.963  1.00 28.84    -0.382 OA
HETATM   60  HO3 RAP A 108       3.191  -8.871   1.450  1.00 13.32     0.210 HD
ENDBRANCH  54  59
ENDBRANCH  50  51
ENDBRANCH  48  50
ENDBRANCH  41  48
BRANCH  35  61
HETATM   61  O10 RAP A 108       2.347  -8.731  -0.764  1.00 12.16    -0.378 OA
HETATM   62  HO1 RAP A 108       1.453  -8.446  -1.004  1.00 13.32     0.211 HD
ENDBRANCH  35  61
BRANCH  16  63
HETATM   63  O6  RAP A 108       9.240  -7.022 -10.734  1.00 14.16    -0.358 OA
HETATM   64  HO6 RAP A 108       9.573  -6.183 -11.065  1.00 13.32     0.213 HD
ENDBRANCH  16  63
BRANCH  34  65
HETATM   65  O9  RAP A 108       1.781 -11.440   0.279  1.00 23.09    -0.344 OA
HETATM   66  C51 RAP A 108       2.994 -12.077   0.482  1.00 19.04     0.175 C 
ENDBRANCH  34  65
BRANCH  23  67
HETATM   67  O7  RAP A 108       4.799  -9.936 -10.863  1.00 20.17    -0.350 OA
HETATM   68  C50 RAP A 108       5.006 -11.245 -11.289  1.00 28.36     0.175 C 
ENDBRANCH  23  67
TORSDOF 9
ENDMDL
