MODEL 1
REMARK VINA RESULT:    -6.723      0.000      0.000
REMARK INTER + INTRA:         -11.701
REMARK INTER:                  -9.671
REMARK INTRA:                  -2.030
REMARK UNBOUND:                -2.030
REMARK  9 active torsions:
REMARK  status: ('A' for Active; 'I' for Inactive)
REMARK    1  A    between atoms: O6_12  and  C10_19 
REMARK    2  A    between atoms: O7_14  and  C16_29 
REMARK    3  A    between atoms: O9_18  and  C27_40 
REMARK    4  A    between atoms: O10_20  and  C28_41 
REMARK    5  A    between atoms: O12_24  and  C39_52 
REMARK    6  A    between atoms: O13_26  and  C40_53 
REMARK    7  A    between atoms: C34_47  and  C35_48 
REMARK    8  A    between atoms: C35_48  and  C36_49 
REMARK    9  A    between atoms: C36_49  and  C37_50 
ROOT
HETATM    1  C1  RAP A 108       5.873  -1.001  -6.393  1.00  5.98     0.292 C 
HETATM    2  O1  RAP A 108       5.720  -0.569  -7.739  1.00  9.08    -0.302 OA
HETATM    3  C2  RAP A 108       7.231  -1.003  -5.691  1.00  6.42     0.171 C 
HETATM    4  O2  RAP A 108       4.878  -1.409  -5.799  1.00 14.08    -0.262 OA
HETATM    5  C3  RAP A 108       7.118  -0.456  -4.276  1.00  5.50     0.033 C 
HETATM    6  O3  RAP A 108       9.224  -2.153  -7.063  1.00 10.38    -0.264 OA
HETATM    7  C4  RAP A 108       6.963   1.057  -4.217  1.00  4.49     0.004 C 
HETATM    8  O4  RAP A 108      11.319   0.027  -7.141  1.00 10.60    -0.281 OA
HETATM    9  C5  RAP A 108       8.119   1.681  -4.977  1.00  4.19     0.024 C 
HETATM   10  O5  RAP A 108       9.349   1.257  -9.288  1.00 10.76    -0.332 OA
HETATM   11  C6  RAP A 108       8.147   1.202  -6.395  1.00  3.25     0.105 C 
HETATM   12  N7  RAP A 108       8.298  -0.263  -6.372  1.00  8.46    -0.307 N 
HETATM   13  C8  RAP A 108       9.237  -0.915  -7.074  1.00 10.06     0.297 C 
HETATM   14  O8  RAP A 108      -2.888   3.265  -9.163  1.00 18.31    -0.293 OA
HETATM   15  C9  RAP A 108      10.283  -0.255  -7.757  1.00 11.13     0.279 C 
HETATM   16  C10 RAP A 108      10.185   0.124  -9.245  1.00 16.59     0.246 C 
HETATM   17  C11 RAP A 108       9.560  -1.018 -10.145  1.00 10.40     0.059 C 
HETATM   18  O11 RAP A 108       4.471   2.029  -7.045  1.00  9.49    -0.296 OA
HETATM   19  C12 RAP A 108       9.193  -0.487 -11.550  1.00 12.17     0.008 C 
HETATM   20  C13 RAP A 108       8.391   0.801 -11.440  1.00 12.80     0.030 C 
HETATM   21  C14 RAP A 108       9.016   1.829 -10.502  1.00 10.37     0.121 C 
HETATM   22  C15 RAP A 108       7.995   2.900 -10.162  1.00  5.94     0.064 C 
HETATM   23  C16 RAP A 108       7.603   3.853 -11.284  1.00  9.79     0.136 C 
HETATM   24  C17 RAP A 108       6.555   4.844 -10.824  1.00 15.52    -0.017 C 
HETATM   25  C18 RAP A 108       5.344   4.777 -11.362  1.00 14.38    -0.006 C 
HETATM   26  C19 RAP A 108       4.217   5.648 -10.999  1.00  9.73    -0.001 C 
HETATM   27  C20 RAP A 108       3.067   5.517 -11.646  1.00 10.26    -0.000 C 
HETATM   28  C21 RAP A 108       1.876   6.294 -11.255  1.00 11.40    -0.005 C 
HETATM   29  C22 RAP A 108       0.681   6.031 -11.749  1.00 17.77    -0.026 C 
HETATM   30  C23 RAP A 108      -0.591   6.719 -11.306  1.00 15.64     0.022 C 
HETATM   31  C24 RAP A 108      -1.543   5.625 -10.854  1.00 14.68     0.012 C 
HETATM   32  C25 RAP A 108      -1.027   4.636  -9.825  1.00 11.87     0.061 C 
HETATM   33  C26 RAP A 108      -1.862   3.363  -9.832  1.00 11.65     0.180 C 
HETATM   34  C27 RAP A 108      -1.354   2.215 -10.699  1.00  8.13     0.203 C 
HETATM   35  C28 RAP A 108      -0.273   1.333  -9.996  1.00 10.80     0.163 C 
HETATM   36  C29 RAP A 108       1.146   1.931 -10.056  1.00  9.60    -0.019 C 
HETATM   37  C30 RAP A 108       1.777   2.412  -8.985  1.00  8.55    -0.025 C 
HETATM   38  C31 RAP A 108       3.192   2.997  -8.862  1.00  8.43     0.079 C 
HETATM   39  C32 RAP A 108       4.120   1.961  -8.228  1.00 10.69     0.157 C 
HETATM   40  C33 RAP A 108       4.542   0.809  -9.133  1.00  6.51     0.095 C 
HETATM   41  C34 RAP A 108       4.513  -0.526  -8.418  1.00  9.62     0.132 C 
HETATM   42  C43 RAP A 108      10.411  -2.318 -10.255  1.00 11.25     0.005 C 
HETATM   43  C44 RAP A 108       7.020   5.873  -9.778  1.00 14.40     0.029 C 
HETATM   44  C45 RAP A 108      -1.200   7.528 -12.442  1.00  9.23     0.005 C 
HETATM   45  C46 RAP A 108      -0.980   5.251  -8.424  1.00 15.99     0.008 C 
HETATM   46  C47 RAP A 108       1.760   1.942 -11.443  1.00 14.60     0.029 C 
HETATM   47  C48 RAP A 108       3.134   4.252  -7.977  1.00  9.37     0.013 C 
ENDROOT
BRANCH  41  48
HETATM   48  C35 RAP A 108       4.461  -1.813  -9.264  1.00  9.58     0.028 C 
HETATM   49  C49 RAP A 108       5.791  -2.145  -9.878  1.00  8.29     0.003 C 
BRANCH  48  50
HETATM   50  C36 RAP A 108       3.377  -1.751 -10.339  1.00 10.31     0.003 C 
BRANCH  50  51
HETATM   51  C37 RAP A 108       2.235  -2.766 -10.243  1.00 22.90     0.003 C 
HETATM   52  C38 RAP A 108       1.238  -2.545 -11.387  1.00 14.17     0.032 C 
HETATM   53  C39 RAP A 108       0.007  -3.448 -11.289  1.00 34.20     0.142 C 
HETATM   54  C40 RAP A 108       0.450  -4.945 -11.157  1.00 38.24     0.138 C 
HETATM   55  C41 RAP A 108       1.480  -5.178 -10.034  1.00 16.32     0.032 C 
HETATM   56  C42 RAP A 108       2.663  -4.231 -10.176  1.00 14.05     0.003 C 
BRANCH  53  57
HETATM   57  O12 RAP A 108      -0.724  -3.255 -12.473  1.00 30.82    -0.352 OA
HETATM   58  C52 RAP A 108      -0.149  -2.441 -13.436  1.00 28.14     0.174 C 
ENDBRANCH  53  57
BRANCH  54  59
HETATM   59  O13 RAP A 108      -0.700  -5.753 -10.911  1.00 28.84    -0.382 OA
HETATM   60  HO3 RAP A 108      -1.404  -5.209 -10.536  1.00 13.32     0.210 HD
ENDBRANCH  54  59
ENDBRANCH  50  51
ENDBRANCH  48  50
ENDBRANCH  41  48
BRANCH  35  61
HETATM   61  O10 RAP A 108      -0.673   1.167  -8.630  1.00 12.16    -0.378 OA
HETATM   62  HO1 RAP A 108      -1.332   1.827  -8.370  1.00 13.32     0.211 HD
ENDBRANCH  35  61
BRANCH  16  63
HETATM   63  O6  RAP A 108      11.496   0.431  -9.730  1.00 14.16    -0.358 OA
HETATM   64  HO6 RAP A 108      12.090  -0.270  -9.445  1.00 13.32     0.213 HD
ENDBRANCH  16  63
BRANCH  34  65
HETATM   65  O9  RAP A 108      -2.431   1.369 -11.000  1.00 23.09    -0.344 OA
HETATM   66  C51 RAP A 108      -2.144   0.314 -11.850  1.00 19.04     0.175 C 
ENDBRANCH  34  65
BRANCH  23  67
HETATM   67  O7  RAP A 108       8.750   4.541 -11.678  1.00 20.17    -0.350 OA
HETATM   68  C50 RAP A 108       8.954   4.662 -13.049  1.00 28.36     0.175 C 
ENDBRANCH  23  67
TORSDOF 9
ENDMDL
MODEL 2
REMARK VINA RESULT:    -6.339      2.901      8.463
REMARK INTER + INTRA:         -11.149
REMARK INTER:                  -8.754
REMARK INTRA:                  -2.395
REMARK UNBOUND:                -2.030
REMARK  9 active torsions:
REMARK  status: ('A' for Active; 'I' for Inactive)
REMARK    1  A    between atoms: O6_12  and  C10_19 
REMARK    2  A    between atoms: O7_14  and  C16_29 
REMARK    3  A    between atoms: O9_18  and  C27_40 
REMARK    4  A    between atoms: O10_20  and  C28_41 
REMARK    5  A    between atoms: O12_24  and  C39_52 
REMARK    6  A    between atoms: O13_26  and  C40_53 
REMARK    7  A    between atoms: C34_47  and  C35_48 
REMARK    8  A    between atoms: C35_48  and  C36_49 
REMARK    9  A    between atoms: C36_49  and  C37_50 
ROOT
HETATM    1  C1  RAP A 108       7.540   2.027 -12.515  1.00  5.98     0.292 C 
HETATM    2  O1  RAP A 108       6.552   1.870 -11.506  1.00  9.08    -0.302 OA
HETATM    3  C2  RAP A 108       8.417   3.276 -12.607  1.00  6.42     0.171 C 
HETATM    4  O2  RAP A 108       7.660   1.134 -13.351  1.00 14.08    -0.262 OA
HETATM    5  C3  RAP A 108       9.868   2.909 -12.878  1.00  5.50     0.033 C 
HETATM    6  O3  RAP A 108       7.100   5.607 -12.498  1.00 10.38    -0.264 OA
HETATM    7  C4  RAP A 108      10.594   2.349 -11.663  1.00  4.49     0.004 C 
HETATM    8  O4  RAP A 108       8.473   7.039 -10.215  1.00 10.60    -0.281 OA
HETATM    9  C5  RAP A 108      10.465   3.352 -10.531  1.00  4.19     0.024 C 
HETATM   10  O5  RAP A 108       6.802   4.987  -8.484  1.00 10.76    -0.332 OA
HETATM   11  C6  RAP A 108       9.025   3.619 -10.217  1.00  3.25     0.105 C 
HETATM   12  N7  RAP A 108       8.392   4.156 -11.433  1.00  8.46    -0.307 N 
HETATM   13  C8  RAP A 108       7.671   5.288 -11.447  1.00 10.06     0.297 C 
HETATM   14  O8  RAP A 108       5.384  -7.310  -9.232  1.00 18.31    -0.293 OA
HETATM   15  C9  RAP A 108       7.602   6.169 -10.345  1.00 11.13     0.279 C 
HETATM   16  C10 RAP A 108       6.478   6.090  -9.297  1.00 16.59     0.246 C 
HETATM   17  C11 RAP A 108       5.043   5.867  -9.929  1.00 10.40     0.059 C 
HETATM   18  O11 RAP A 108       8.111  -0.081  -9.908  1.00  9.49    -0.296 OA
HETATM   19  C12 RAP A 108       4.008   5.484  -8.847  1.00 12.17     0.008 C 
HETATM   20  C13 RAP A 108       4.543   4.359  -7.972  1.00 12.80     0.030 C 
HETATM   21  C14 RAP A 108       5.957   4.610  -7.456  1.00 10.37     0.121 C 
HETATM   22  C15 RAP A 108       6.544   3.315  -6.923  1.00  5.94     0.064 C 
HETATM   23  C16 RAP A 108       5.945   2.771  -5.632  1.00  9.79     0.136 C 
HETATM   24  C17 RAP A 108       6.592   1.463  -5.232  1.00 15.52    -0.017 C 
HETATM   25  C18 RAP A 108       5.854   0.360  -5.254  1.00 14.38    -0.006 C 
HETATM   26  C19 RAP A 108       6.346  -0.984  -4.922  1.00  9.73    -0.001 C 
HETATM   27  C20 RAP A 108       5.497  -2.002  -4.930  1.00 10.26    -0.000 C 
HETATM   28  C21 RAP A 108       5.956  -3.384  -4.703  1.00 11.40    -0.005 C 
HETATM   29  C22 RAP A 108       5.167  -4.422  -4.909  1.00 17.77    -0.026 C 
HETATM   30  C23 RAP A 108       5.615  -5.863  -4.799  1.00 15.64     0.022 C 
HETATM   31  C24 RAP A 108       5.301  -6.519  -6.132  1.00 14.68     0.012 C 
HETATM   32  C25 RAP A 108       5.829  -5.839  -7.382  1.00 11.87     0.061 C 
HETATM   33  C26 RAP A 108       5.060  -6.299  -8.614  1.00 11.65     0.180 C 
HETATM   34  C27 RAP A 108       3.880  -5.434  -9.046  1.00  8.13     0.203 C 
HETATM   35  C28 RAP A 108       4.291  -4.215  -9.933  1.00 10.80     0.163 C 
HETATM   36  C29 RAP A 108       4.804  -3.009  -9.123  1.00  9.60    -0.019 C 
HETATM   37  C30 RAP A 108       6.078  -2.617  -9.134  1.00  8.55    -0.025 C 
HETATM   38  C31 RAP A 108       6.742  -1.425  -8.428  1.00  8.43     0.079 C 
HETATM   39  C32 RAP A 108       6.991  -0.306  -9.439  1.00 10.69     0.157 C 
HETATM   40  C33 RAP A 108       5.758   0.479  -9.873  1.00  6.51     0.095 C 
HETATM   41  C34 RAP A 108       5.745   0.754 -11.362  1.00  9.62     0.132 C 
HETATM   42  C43 RAP A 108       4.513   7.042 -10.804  1.00 11.25     0.005 C 
HETATM   43  C44 RAP A 108       8.067   1.550  -4.801  1.00 14.40     0.029 C 
HETATM   44  C45 RAP A 108       4.891  -6.575  -3.665  1.00  9.23     0.005 C 
HETATM   45  C46 RAP A 108       7.332  -6.070  -7.559  1.00 15.99     0.008 C 
HETATM   46  C47 RAP A 108       3.739  -2.313  -8.298  1.00 14.60     0.029 C 
HETATM   47  C48 RAP A 108       8.078  -1.887  -7.826  1.00  9.37     0.013 C 
ENDROOT
BRANCH  41  48
HETATM   48  C35 RAP A 108       4.404   1.116 -12.032  1.00  9.58     0.028 C 
HETATM   49  C49 RAP A 108       4.519   1.197 -13.527  1.00  8.29     0.003 C 
BRANCH  48  50
HETATM   50  C36 RAP A 108       3.810   2.407 -11.470  1.00 10.31     0.003 C 
BRANCH  50  51
HETATM   51  C37 RAP A 108       2.682   2.272 -10.445  1.00 22.90     0.003 C 
HETATM   52  C38 RAP A 108       1.606   3.332 -10.705  1.00 14.17     0.032 C 
HETATM   53  C39 RAP A 108       0.501   3.334  -9.647  1.00 34.20     0.142 C 
HETATM   54  C40 RAP A 108      -0.098   1.894  -9.494  1.00 38.24     0.138 C 
HETATM   55  C41 RAP A 108       0.976   0.811  -9.267  1.00 16.32     0.032 C 
HETATM   56  C42 RAP A 108       2.056   0.882 -10.338  1.00 14.05     0.003 C 
BRANCH  53  57
HETATM   57  O12 RAP A 108      -0.484   4.228 -10.100  1.00 30.82    -0.352 OA
HETATM   58  C52 RAP A 108      -0.149   5.573 -10.108  1.00 28.14     0.174 C 
ENDBRANCH  53  57
BRANCH  54  59
HETATM   59  O13 RAP A 108      -1.012   1.881  -8.400  1.00 28.84    -0.382 OA
HETATM   60  HO3 RAP A 108      -0.775   2.574  -7.770  1.00 13.32     0.210 HD
ENDBRANCH  54  59
ENDBRANCH  50  51
ENDBRANCH  48  50
ENDBRANCH  41  48
BRANCH  35  61
HETATM   61  O10 RAP A 108       5.309  -4.663 -10.837  1.00 12.16    -0.378 OA
HETATM   62  HO1 RAP A 108       5.864  -3.928 -11.139  1.00 13.32     0.211 HD
ENDBRANCH  35  61
BRANCH  16  63
HETATM   63  O6  RAP A 108       6.468   7.305  -8.541  1.00 14.16    -0.358 OA
HETATM   64  HO6 RAP A 108       6.350   8.036  -9.153  1.00 13.32     0.213 HD
ENDBRANCH  16  63
BRANCH  34  65
HETATM   65  O9  RAP A 108       3.008  -6.218  -9.817  1.00 23.09    -0.344 OA
HETATM   66  C51 RAP A 108       1.866  -5.576 -10.266  1.00 19.04     0.175 C 
ENDBRANCH  34  65
BRANCH  23  67
HETATM   67  O7  RAP A 108       6.158   3.719  -4.633  1.00 20.17    -0.350 OA
HETATM   68  C50 RAP A 108       5.053   4.052  -3.855  1.00 28.36     0.175 C 
ENDBRANCH  23  67
TORSDOF 9
ENDMDL
MODEL 3
REMARK VINA RESULT:    -6.306      5.916     10.524
REMARK INTER + INTRA:         -11.100
REMARK INTER:                  -8.302
REMARK INTRA:                  -2.798
REMARK UNBOUND:                -2.030
REMARK  9 active torsions:
REMARK  status: ('A' for Active; 'I' for Inactive)
REMARK    1  A    between atoms: O6_12  and  C10_19 
REMARK    2  A    between atoms: O7_14  and  C16_29 
REMARK    3  A    between atoms: O9_18  and  C27_40 
REMARK    4  A    between atoms: O10_20  and  C28_41 
REMARK    5  A    between atoms: O12_24  and  C39_52 
REMARK    6  A    between atoms: O13_26  and  C40_53 
REMARK    7  A    between atoms: C34_47  and  C35_48 
REMARK    8  A    between atoms: C35_48  and  C36_49 
REMARK    9  A    between atoms: C36_49  and  C37_50 
ROOT
HETATM    1  C1  RAP A 108      13.689  -3.175  -0.948  1.00  5.98     0.292 C 
HETATM    2  O1  RAP A 108      13.525  -2.132  -1.899  1.00  9.08    -0.302 OA
HETATM    3  C2  RAP A 108      14.346  -2.939   0.412  1.00  6.42     0.171 C 
HETATM    4  O2  RAP A 108      13.312  -4.304  -1.257  1.00 14.08    -0.262 OA
HETATM    5  C3  RAP A 108      13.569  -3.631   1.523  1.00  5.50     0.033 C 
HETATM    6  O3  RAP A 108      16.685  -1.636   0.340  1.00 10.38    -0.264 OA
HETATM    7  C4  RAP A 108      12.276  -2.921   1.897  1.00  4.49     0.004 C 
HETATM    8  O4  RAP A 108      16.207   0.689   2.214  1.00 10.60    -0.281 OA
HETATM    9  C5  RAP A 108      12.610  -1.482   2.248  1.00  4.19     0.024 C 
HETATM   10  O5  RAP A 108      14.512   1.761  -0.231  1.00 10.76    -0.332 OA
HETATM   11  C6  RAP A 108      13.283  -0.796   1.099  1.00  3.25     0.105 C 
HETATM   12  N7  RAP A 108      14.520  -1.535   0.797  1.00  8.46    -0.307 N 
HETATM   13  C8  RAP A 108      15.720  -0.945   0.691  1.00 10.06     0.297 C 
HETATM   14  O8  RAP A 108       5.760  -3.533  -7.243  1.00 18.31    -0.293 OA
HETATM   15  C9  RAP A 108      15.946   0.406   1.038  1.00 11.13     0.279 C 
HETATM   16  C10 RAP A 108      15.884   1.544   0.003  1.00 16.59     0.246 C 
HETATM   17  C11 RAP A 108      16.596   1.189  -1.366  1.00 10.40     0.059 C 
HETATM   18  O11 RAP A 108      10.613  -1.810  -1.443  1.00  9.49    -0.296 OA
HETATM   19  C12 RAP A 108      16.240   2.217  -2.465  1.00 12.17     0.008 C 
HETATM   20  C13 RAP A 108      14.735   2.436  -2.523  1.00 12.80     0.030 C 
HETATM   21  C14 RAP A 108      14.106   2.703  -1.159  1.00 10.37     0.121 C 
HETATM   22  C15 RAP A 108      12.599   2.538  -1.249  1.00  5.94     0.064 C 
HETATM   23  C16 RAP A 108      11.841   3.597  -2.039  1.00  9.79     0.136 C 
HETATM   24  C17 RAP A 108      10.358   3.296  -2.082  1.00 15.52    -0.017 C 
HETATM   25  C18 RAP A 108       9.809   2.989  -3.250  1.00 14.38    -0.006 C 
HETATM   26  C19 RAP A 108       8.394   2.645  -3.447  1.00  9.73    -0.001 C 
HETATM   27  C20 RAP A 108       7.953   2.407  -4.674  1.00 10.26    -0.000 C 
HETATM   28  C21 RAP A 108       6.569   1.961  -4.916  1.00 11.40    -0.005 C 
HETATM   29  C22 RAP A 108       6.176   1.526  -6.099  1.00 17.77    -0.026 C 
HETATM   30  C23 RAP A 108       4.803   0.954  -6.380  1.00 15.64     0.022 C 
HETATM   31  C24 RAP A 108       5.020  -0.433  -6.958  1.00 14.68     0.012 C 
HETATM   32  C25 RAP A 108       5.897  -1.386  -6.168  1.00 11.87     0.061 C 
HETATM   33  C26 RAP A 108       6.414  -2.510  -7.057  1.00 11.65     0.180 C 
HETATM   34  C27 RAP A 108       7.785  -2.304  -7.693  1.00  8.13     0.203 C 
HETATM   35  C28 RAP A 108       8.972  -2.693  -6.755  1.00 10.80     0.163 C 
HETATM   36  C29 RAP A 108       9.342  -1.594  -5.740  1.00  9.60    -0.019 C 
HETATM   37  C30 RAP A 108       9.121  -1.712  -4.431  1.00  8.55    -0.025 C 
HETATM   38  C31 RAP A 108       9.462  -0.743  -3.289  1.00  8.43     0.079 C 
HETATM   39  C32 RAP A 108      10.695  -1.249  -2.540  1.00 10.69     0.157 C 
HETATM   40  C33 RAP A 108      12.026  -1.066  -3.259  1.00  6.51     0.095 C 
HETATM   41  C34 RAP A 108      12.920  -2.283  -3.135  1.00  9.62     0.132 C 
HETATM   42  C43 RAP A 108      18.138   0.989  -1.280  1.00 11.25     0.005 C 
HETATM   43  C44 RAP A 108       9.613   3.410  -0.739  1.00 14.40     0.029 C 
HETATM   44  C45 RAP A 108       4.035   1.832  -7.357  1.00  9.23     0.005 C 
HETATM   45  C46 RAP A 108       5.164  -1.949  -4.948  1.00 15.99     0.008 C 
HETATM   46  C47 RAP A 108       9.965  -0.358  -6.359  1.00 14.60     0.029 C 
HETATM   47  C48 RAP A 108       8.265  -0.669  -2.327  1.00  9.37     0.013 C 
ENDROOT
BRANCH  41  48
HETATM   48  C35 RAP A 108      14.070  -2.456  -4.148  1.00  9.58     0.028 C 
HETATM   49  C49 RAP A 108      15.270  -1.626  -3.793  1.00  8.29     0.003 C 
BRANCH  48  50
HETATM   50  C36 RAP A 108      13.624  -2.167  -5.580  1.00 10.31     0.003 C 
BRANCH  50  51
HETATM   51  C37 RAP A 108      13.223  -3.364  -6.446  1.00 22.90     0.003 C 
HETATM   52  C38 RAP A 108      12.172  -4.210  -5.718  1.00 14.17     0.032 C 
HETATM   53  C39 RAP A 108      11.808  -5.490  -6.473  1.00 34.20     0.142 C 
HETATM   54  C40 RAP A 108      11.390  -5.143  -7.944  1.00 38.24     0.138 C 
HETATM   55  C41 RAP A 108      12.422  -4.263  -8.678  1.00 16.32     0.032 C 
HETATM   56  C42 RAP A 108      12.757  -3.023  -7.861  1.00 14.05     0.003 C 
BRANCH  53  57
HETATM   57  O12 RAP A 108      10.731  -6.069  -5.782  1.00 30.82    -0.352 OA
HETATM   58  C52 RAP A 108      10.827  -6.108  -4.399  1.00 28.14     0.174 C 
ENDBRANCH  53  57
BRANCH  54  59
HETATM   59  O13 RAP A 108      11.207  -6.354  -8.675  1.00 28.84    -0.382 OA
HETATM   60  HO3 RAP A 108      12.065  -6.762  -8.848  1.00 13.32     0.210 HD
ENDBRANCH  54  59
ENDBRANCH  50  51
ENDBRANCH  48  50
ENDBRANCH  41  48
BRANCH  35  61
HETATM   61  O10 RAP A 108       8.600  -3.891  -6.061  1.00 12.16    -0.378 OA
HETATM   62  HO1 RAP A 108       9.269  -4.584  -6.164  1.00 13.32     0.211 HD
ENDBRANCH  35  61
BRANCH  16  63
HETATM   63  O6  RAP A 108      16.503   2.707   0.560  1.00 14.16    -0.358 OA
HETATM   64  HO6 RAP A 108      15.900   3.448   0.450  1.00 13.32     0.213 HD
ENDBRANCH  16  63
BRANCH  34  65
HETATM   65  O9  RAP A 108       7.882  -3.125  -8.827  1.00 23.09    -0.344 OA
HETATM   66  C51 RAP A 108       8.978  -2.894  -9.640  1.00 19.04     0.175 C 
ENDBRANCH  34  65
BRANCH  23  67
HETATM   67  O7  RAP A 108      12.047   4.824  -1.411  1.00 20.17    -0.350 OA
HETATM   68  C50 RAP A 108      11.948   5.953  -2.219  1.00 28.36     0.175 C 
ENDBRANCH  23  67
TORSDOF 9
ENDMDL
MODEL 4
REMARK VINA RESULT:    -6.248      4.920      9.248
REMARK INTER + INTRA:         -11.018
REMARK INTER:                  -9.023
REMARK INTRA:                  -1.995
REMARK UNBOUND:                -2.030
REMARK  9 active torsions:
REMARK  status: ('A' for Active; 'I' for Inactive)
REMARK    1  A    between atoms: O6_12  and  C10_19 
REMARK    2  A    between atoms: O7_14  and  C16_29 
REMARK    3  A    between atoms: O9_18  and  C27_40 
REMARK    4  A    between atoms: O10_20  and  C28_41 
REMARK    5  A    between atoms: O12_24  and  C39_52 
REMARK    6  A    between atoms: O13_26  and  C40_53 
REMARK    7  A    between atoms: C34_47  and  C35_48 
REMARK    8  A    between atoms: C35_48  and  C36_49 
REMARK    9  A    between atoms: C36_49  and  C37_50 
ROOT
HETATM    1  C1  RAP A 108       8.108  -6.759  -6.525  1.00  5.98     0.292 C 
HETATM    2  O1  RAP A 108       6.857  -6.086  -6.458  1.00  9.08    -0.302 OA
HETATM    3  C2  RAP A 108       8.258  -8.132  -7.179  1.00  6.42     0.171 C 
HETATM    4  O2  RAP A 108       9.084  -6.218  -6.009  1.00 14.08    -0.262 OA
HETATM    5  C3  RAP A 108       9.501  -8.189  -8.055  1.00  5.50     0.033 C 
HETATM    6  O3  RAP A 108       6.476  -9.971  -6.394  1.00 10.38    -0.264 OA
HETATM    7  C4  RAP A 108       9.351  -7.450  -9.377  1.00  4.49     0.004 C 
HETATM    8  O4  RAP A 108       5.268 -10.884  -9.013  1.00 10.60    -0.281 OA
HETATM    9  C5  RAP A 108       8.128  -7.999 -10.089  1.00  4.19     0.024 C 
HETATM   10  O5  RAP A 108       3.806  -8.086  -8.825  1.00 10.76    -0.332 OA
HETATM   11  C6  RAP A 108       6.901  -7.838  -9.245  1.00  3.25     0.105 C 
HETATM   12  N7  RAP A 108       7.120  -8.576  -7.990  1.00  8.46    -0.307 N 
HETATM   13  C8  RAP A 108       6.248  -9.473  -7.504  1.00 10.06     0.297 C 
HETATM   14  O8  RAP A 108       8.019   3.370  -6.636  1.00 18.31    -0.293 OA
HETATM   15  C9  RAP A 108       5.129  -9.931  -8.236  1.00 11.13     0.279 C 
HETATM   16  C10 RAP A 108       3.736  -9.290  -8.098  1.00 16.59     0.246 C 
HETATM   17  C11 RAP A 108       3.336  -8.971  -6.600  1.00 10.40     0.059 C 
HETATM   18  O11 RAP A 108       7.499  -4.120  -8.582  1.00  9.49    -0.296 OA
HETATM   19  C12 RAP A 108       2.091  -8.056  -6.535  1.00 12.17     0.008 C 
HETATM   20  C13 RAP A 108       2.262  -6.859  -7.458  1.00 12.80     0.030 C 
HETATM   21  C14 RAP A 108       2.717  -7.235  -8.865  1.00 10.37     0.121 C 
HETATM   22  C15 RAP A 108       3.215  -5.997  -9.590  1.00  5.94     0.064 C 
HETATM   23  C16 RAP A 108       2.166  -4.963  -9.980  1.00  9.79     0.136 C 
HETATM   24  C17 RAP A 108       2.797  -3.767 -10.660  1.00 15.52    -0.017 C 
HETATM   25  C18 RAP A 108       2.756  -2.595 -10.042  1.00 14.38    -0.006 C 
HETATM   26  C19 RAP A 108       3.348  -1.353 -10.559  1.00  9.73    -0.001 C 
HETATM   27  C20 RAP A 108       3.195  -0.230  -9.870  1.00 10.26    -0.000 C 
HETATM   28  C21 RAP A 108       3.852   1.021 -10.292  1.00 11.40    -0.005 C 
HETATM   29  C22 RAP A 108       3.879   2.088  -9.515  1.00 17.77    -0.026 C 
HETATM   30  C23 RAP A 108       4.629   3.360  -9.846  1.00 15.64     0.022 C 
HETATM   31  C24 RAP A 108       5.576   3.620  -8.688  1.00 14.68     0.012 C 
HETATM   32  C25 RAP A 108       6.501   2.488  -8.279  1.00 11.87     0.061 C 
HETATM   33  C26 RAP A 108       7.017   2.696  -6.862  1.00 11.65     0.180 C 
HETATM   34  C27 RAP A 108       6.236   2.016  -5.742  1.00  8.13     0.203 C 
HETATM   35  C28 RAP A 108       6.640   0.523  -5.517  1.00 10.80     0.163 C 
HETATM   36  C29 RAP A 108       5.966  -0.452  -6.502  1.00  9.60    -0.019 C 
HETATM   37  C30 RAP A 108       6.635  -1.093  -7.460  1.00  8.55    -0.025 C 
HETATM   38  C31 RAP A 108       6.134  -2.120  -8.486  1.00  8.43     0.079 C 
HETATM   39  C32 RAP A 108       6.555  -3.524  -8.053  1.00 10.69     0.157 C 
HETATM   40  C33 RAP A 108       5.771  -4.120  -6.889  1.00  6.51     0.095 C 
HETATM   41  C34 RAP A 108       6.667  -4.835  -5.898  1.00  9.62     0.132 C 
HETATM   42  C43 RAP A 108       3.151 -10.216  -5.682  1.00 11.25     0.005 C 
HETATM   43  C44 RAP A 108       3.409  -4.032 -12.047  1.00 14.40     0.029 C 
HETATM   44  C45 RAP A 108       3.670   4.527 -10.031  1.00  9.23     0.005 C 
HETATM   45  C46 RAP A 108       7.662   2.323  -9.264  1.00 15.99     0.008 C 
HETATM   46  C47 RAP A 108       4.471  -0.610  -6.299  1.00 14.60     0.029 C 
HETATM   47  C48 RAP A 108       6.748  -1.793  -9.856  1.00  9.37     0.013 C 
ENDROOT
BRANCH  41  48
HETATM   48  C35 RAP A 108       6.132  -5.088  -4.474  1.00  9.58     0.028 C 
HETATM   49  C49 RAP A 108       7.219  -5.032  -3.440  1.00  8.29     0.003 C 
BRANCH  48  50
HETATM   50  C36 RAP A 108       5.366  -6.406  -4.374  1.00 10.31     0.003 C 
BRANCH  50  51
HETATM   51  C37 RAP A 108       4.758  -6.763  -3.015  1.00 22.90     0.003 C 
HETATM   52  C38 RAP A 108       3.236  -6.901  -3.140  1.00 14.17     0.032 C 
HETATM   53  C39 RAP A 108       2.546  -7.142  -1.796  1.00 34.20     0.142 C 
HETATM   54  C40 RAP A 108       3.204  -8.364  -1.068  1.00 38.24     0.138 C 
HETATM   55  C41 RAP A 108       4.739  -8.257  -0.966  1.00 16.32     0.032 C 
HETATM   56  C42 RAP A 108       5.357  -7.991  -2.331  1.00 14.05     0.003 C 
BRANCH  53  57
HETATM   57  O12 RAP A 108       1.197  -7.411  -2.083  1.00 30.82    -0.352 OA
HETATM   58  C52 RAP A 108       0.721  -6.972  -3.309  1.00 28.14     0.174 C 
ENDBRANCH  53  57
BRANCH  54  59
HETATM   59  O13 RAP A 108       2.656  -8.476   0.244  1.00 28.84    -0.382 OA
HETATM   60  HO3 RAP A 108       1.918  -7.861   0.342  1.00 13.32     0.210 HD
ENDBRANCH  54  59
ENDBRANCH  50  51
ENDBRANCH  48  50
ENDBRANCH  41  48
BRANCH  35  61
HETATM   61  O10 RAP A 108       8.065   0.437  -5.645  1.00 12.16    -0.378 OA
HETATM   62  HO1 RAP A 108       8.321  -0.045  -6.446  1.00 13.32     0.211 HD
ENDBRANCH  35  61
BRANCH  16  63
HETATM   63  O6  RAP A 108       2.764 -10.177  -8.659  1.00 14.16    -0.358 OA
HETATM   64  HO6 RAP A 108       2.871 -10.170  -9.614  1.00 13.32     0.213 HD
ENDBRANCH  16  63
BRANCH  34  65
HETATM   65  O9  RAP A 108       6.498   2.690  -4.539  1.00 23.09    -0.344 OA
HETATM   66  C51 RAP A 108       5.536   3.604  -4.144  1.00 19.04     0.175 C 
ENDBRANCH  34  65
BRANCH  23  67
HETATM   67  O7  RAP A 108       1.270  -5.576 -10.855  1.00 20.17    -0.350 OA
HETATM   68  C50 RAP A 108       0.038  -4.949 -11.013  1.00 28.36     0.175 C 
ENDBRANCH  23  67
TORSDOF 9
ENDMDL
MODEL 5
REMARK VINA RESULT:    -6.229      6.269     11.624
REMARK INTER + INTRA:         -10.990
REMARK INTER:                  -8.233
REMARK INTRA:                  -2.758
REMARK UNBOUND:                -2.030
REMARK  9 active torsions:
REMARK  status: ('A' for Active; 'I' for Inactive)
REMARK    1  A    between atoms: O6_12  and  C10_19 
REMARK    2  A    between atoms: O7_14  and  C16_29 
REMARK    3  A    between atoms: O9_18  and  C27_40 
REMARK    4  A    between atoms: O10_20  and  C28_41 
REMARK    5  A    between atoms: O12_24  and  C39_52 
REMARK    6  A    between atoms: O13_26  and  C40_53 
REMARK    7  A    between atoms: C34_47  and  C35_48 
REMARK    8  A    between atoms: C35_48  and  C36_49 
REMARK    9  A    between atoms: C36_49  and  C37_50 
ROOT
HETATM    1  C1  RAP A 108      13.663  -3.213  -0.925  1.00  5.98     0.292 C 
HETATM    2  O1  RAP A 108      13.504  -2.173  -1.881  1.00  9.08    -0.302 OA
HETATM    3  C2  RAP A 108      14.318  -2.973   0.435  1.00  6.42     0.171 C 
HETATM    4  O2  RAP A 108      13.284  -4.342  -1.230  1.00 14.08    -0.262 OA
HETATM    5  C3  RAP A 108      13.538  -3.657   1.548  1.00  5.50     0.033 C 
HETATM    6  O3  RAP A 108      16.661  -1.675   0.362  1.00 10.38    -0.264 OA
HETATM    7  C4  RAP A 108      12.245  -2.943   1.916  1.00  4.49     0.004 C 
HETATM    8  O4  RAP A 108      16.185   0.659   2.225  1.00 10.60    -0.281 OA
HETATM    9  C5  RAP A 108      12.582  -1.503   2.261  1.00  4.19     0.024 C 
HETATM   10  O5  RAP A 108      14.497   1.724  -0.228  1.00 10.76    -0.332 OA
HETATM   11  C6  RAP A 108      13.259  -0.824   1.111  1.00  3.25     0.105 C 
HETATM   12  N7  RAP A 108      14.495  -1.567   0.814  1.00  8.46    -0.307 N 
HETATM   13  C8  RAP A 108      15.697  -0.980   0.708  1.00 10.06     0.297 C 
HETATM   14  O8  RAP A 108       5.746  -3.579  -7.234  1.00 18.31    -0.293 OA
HETATM   15  C9  RAP A 108      15.925   0.371   1.049  1.00 11.13     0.279 C 
HETATM   16  C10 RAP A 108      15.868   1.505   0.010  1.00 16.59     0.246 C 
HETATM   17  C11 RAP A 108      16.581   1.142  -1.356  1.00 10.40     0.059 C 
HETATM   18  O11 RAP A 108      10.592  -1.843  -1.432  1.00  9.49    -0.296 OA
HETATM   19  C12 RAP A 108      16.231   2.166  -2.461  1.00 12.17     0.008 C 
HETATM   20  C13 RAP A 108      14.726   2.388  -2.522  1.00 12.80     0.030 C 
HETATM   21  C14 RAP A 108      14.095   2.663  -1.161  1.00 10.37     0.121 C 
HETATM   22  C15 RAP A 108      12.588   2.501  -1.253  1.00  5.94     0.064 C 
HETATM   23  C16 RAP A 108      11.834   3.559  -2.049  1.00  9.79     0.136 C 
HETATM   24  C17 RAP A 108      10.351   3.262  -2.094  1.00 15.52    -0.017 C 
HETATM   25  C18 RAP A 108       9.803   2.951  -3.262  1.00 14.38    -0.006 C 
HETATM   26  C19 RAP A 108       8.388   2.610  -3.460  1.00  9.73    -0.001 C 
HETATM   27  C20 RAP A 108       7.949   2.367  -4.687  1.00 10.26    -0.000 C 
HETATM   28  C21 RAP A 108       6.564   1.923  -4.930  1.00 11.40    -0.005 C 
HETATM   29  C22 RAP A 108       6.172   1.484  -6.112  1.00 17.77    -0.026 C 
HETATM   30  C23 RAP A 108       4.798   0.915  -6.392  1.00 15.64     0.022 C 
HETATM   31  C24 RAP A 108       5.013  -0.476  -6.965  1.00 14.68     0.012 C 
HETATM   32  C25 RAP A 108       5.886  -1.428  -6.169  1.00 11.87     0.061 C 
HETATM   33  C26 RAP A 108       6.402  -2.556  -7.052  1.00 11.65     0.180 C 
HETATM   34  C27 RAP A 108       7.775  -2.357  -7.686  1.00  8.13     0.203 C 
HETATM   35  C28 RAP A 108       8.959  -2.744  -6.743  1.00 10.80     0.163 C 
HETATM   36  C29 RAP A 108       9.329  -1.642  -5.732  1.00  9.60    -0.019 C 
HETATM   37  C30 RAP A 108       9.105  -1.753  -4.423  1.00  8.55    -0.025 C 
HETATM   38  C31 RAP A 108       9.447  -0.781  -3.285  1.00  8.43     0.079 C 
HETATM   39  C32 RAP A 108      10.677  -1.286  -2.531  1.00 10.69     0.157 C 
HETATM   40  C33 RAP A 108      12.010  -1.109  -3.249  1.00  6.51     0.095 C 
HETATM   41  C34 RAP A 108      12.901  -2.328  -3.118  1.00  9.62     0.132 C 
HETATM   42  C43 RAP A 108      18.123   0.938  -1.267  1.00 11.25     0.005 C 
HETATM   43  C44 RAP A 108       9.603   3.383  -0.754  1.00 14.40     0.029 C 
HETATM   44  C45 RAP A 108       4.034   1.790  -7.375  1.00  9.23     0.005 C 
HETATM   45  C46 RAP A 108       5.149  -1.983  -4.947  1.00 15.99     0.008 C 
HETATM   46  C47 RAP A 108       9.957  -0.410  -6.355  1.00 14.60     0.029 C 
HETATM   47  C48 RAP A 108       8.249  -0.699  -2.326  1.00  9.37     0.013 C 
ENDROOT
BRANCH  41  48
HETATM   48  C35 RAP A 108      14.052  -2.509  -4.127  1.00  9.58     0.028 C 
HETATM   49  C49 RAP A 108      14.296  -3.953  -4.459  1.00  8.29     0.003 C 
BRANCH  48  50
HETATM   50  C36 RAP A 108      15.343  -1.844  -3.653  1.00 10.31     0.003 C 
BRANCH  50  51
HETATM   51  C37 RAP A 108      15.787  -0.574  -4.381  1.00 22.90     0.003 C 
HETATM   52  C38 RAP A 108      17.224  -0.735  -4.891  1.00 14.17     0.032 C 
HETATM   53  C39 RAP A 108      17.778   0.540  -5.529  1.00 34.20     0.142 C 
HETATM   54  C40 RAP A 108      16.799   1.053  -6.640  1.00 38.24     0.138 C 
HETATM   55  C41 RAP A 108      15.342   1.187  -6.152  1.00 16.32     0.032 C 
HETATM   56  C42 RAP A 108      14.865  -0.106  -5.506  1.00 14.05     0.003 C 
BRANCH  53  57
HETATM   57  O12 RAP A 108      19.020   0.199  -6.090  1.00 30.82    -0.352 OA
HETATM   58  C52 RAP A 108      19.023  -0.830  -7.018  1.00 28.14     0.174 C 
ENDBRANCH  53  57
BRANCH  54  59
HETATM   59  O13 RAP A 108      17.250   2.321  -7.113  1.00 28.84    -0.382 OA
HETATM   60  HO3 RAP A 108      18.118   2.518  -6.736  1.00 13.32     0.210 HD
ENDBRANCH  54  59
ENDBRANCH  50  51
ENDBRANCH  48  50
ENDBRANCH  41  48
BRANCH  35  61
HETATM   61  O10 RAP A 108       8.582  -3.938  -6.045  1.00 12.16    -0.378 OA
HETATM   62  HO1 RAP A 108       9.356  -4.469  -5.806  1.00 13.32     0.211 HD
ENDBRANCH  35  61
BRANCH  16  63
HETATM   63  O6  RAP A 108      16.489   2.669   0.563  1.00 14.16    -0.358 OA
HETATM   64  HO6 RAP A 108      17.040   3.065  -0.118  1.00 13.32     0.213 HD
ENDBRANCH  16  63
BRANCH  34  65
HETATM   65  O9  RAP A 108       7.871  -3.183  -8.816  1.00 23.09    -0.344 OA
HETATM   66  C51 RAP A 108       9.076  -3.126  -9.496  1.00 19.04     0.175 C 
ENDBRANCH  34  65
BRANCH  23  67
HETATM   67  O7  RAP A 108      12.042   4.789  -1.427  1.00 20.17    -0.350 OA
HETATM   68  C50 RAP A 108      12.184   5.889  -2.268  1.00 28.36     0.175 C 
ENDBRANCH  23  67
TORSDOF 9
ENDMDL
MODEL 6
REMARK VINA RESULT:    -6.206      7.760     13.273
REMARK INTER + INTRA:         -10.958
REMARK INTER:                  -9.197
REMARK INTRA:                  -1.760
REMARK UNBOUND:                -2.030
REMARK  9 active torsions:
REMARK  status: ('A' for Active; 'I' for Inactive)
REMARK    1  A    between atoms: O6_12  and  C10_19 
REMARK    2  A    between atoms: O7_14  and  C16_29 
REMARK    3  A    between atoms: O9_18  and  C27_40 
REMARK    4  A    between atoms: O10_20  and  C28_41 
REMARK    5  A    between atoms: O12_24  and  C39_52 
REMARK    6  A    between atoms: O13_26  and  C40_53 
REMARK    7  A    between atoms: C34_47  and  C35_48 
REMARK    8  A    between atoms: C35_48  and  C36_49 
REMARK    9  A    between atoms: C36_49  and  C37_50 
ROOT
HETATM    1  C1  RAP A 108       5.551  -7.647  -7.330  1.00  5.98     0.292 C 
HETATM    2  O1  RAP A 108       5.674  -6.901  -6.126  1.00  9.08    -0.302 OA
HETATM    3  C2  RAP A 108       5.891  -7.049  -8.695  1.00  6.42     0.171 C 
HETATM    4  O2  RAP A 108       5.129  -8.799  -7.255  1.00 14.08    -0.262 OA
HETATM    5  C3  RAP A 108       6.691  -8.030  -9.540  1.00  5.50     0.033 C 
HETATM    6  O3  RAP A 108       4.795  -4.657  -9.199  1.00 10.38    -0.264 OA
HETATM    7  C4  RAP A 108       8.144  -8.163  -9.109  1.00  4.49     0.004 C 
HETATM    8  O4  RAP A 108       7.199  -2.960  -9.896  1.00 10.60    -0.281 OA
HETATM    9  C5  RAP A 108       8.765  -6.778  -9.106  1.00  4.19     0.024 C 
HETATM   10  O5  RAP A 108       7.664  -3.089  -6.771  1.00 10.76    -0.332 OA
HETATM   11  C6  RAP A 108       8.018  -5.860  -8.189  1.00  3.25     0.105 C 
HETATM   12  N7  RAP A 108       6.628  -5.782  -8.666  1.00  8.46    -0.307 N 
HETATM   13  C8  RAP A 108       5.993  -4.621  -8.890  1.00 10.06     0.297 C 
HETATM   14  O8  RAP A 108       7.827 -12.561   1.231  1.00 18.31    -0.293 OA
HETATM   15  C9  RAP A 108       6.648  -3.370  -8.866  1.00 11.13     0.279 C 
HETATM   16  C10 RAP A 108       6.700  -2.490  -7.604  1.00 16.59     0.246 C 
HETATM   17  C11 RAP A 108       5.319  -2.416  -6.833  1.00 10.40     0.059 C 
HETATM   18  O11 RAP A 108       8.145  -8.264  -5.218  1.00  9.49    -0.296 OA
HETATM   19  C12 RAP A 108       5.495  -1.794  -5.428  1.00 12.17     0.008 C 
HETATM   20  C13 RAP A 108       6.647  -2.462  -4.690  1.00 12.80     0.030 C 
HETATM   21  C14 RAP A 108       7.924  -2.562  -5.519  1.00 10.37     0.121 C 
HETATM   22  C15 RAP A 108       8.878  -3.549  -4.870  1.00  5.94     0.064 C 
HETATM   23  C16 RAP A 108       9.517  -3.120  -3.555  1.00  9.79     0.136 C 
HETATM   24  C17 RAP A 108      10.414  -4.204  -2.998  1.00 15.52    -0.017 C 
HETATM   25  C18 RAP A 108      10.062  -4.796  -1.864  1.00 14.38    -0.006 C 
HETATM   26  C19 RAP A 108      10.812  -5.881  -1.217  1.00  9.73    -0.001 C 
HETATM   27  C20 RAP A 108      10.384  -6.356  -0.055  1.00 10.26    -0.000 C 
HETATM   28  C21 RAP A 108      11.040  -7.510   0.587  1.00 11.40    -0.005 C 
HETATM   29  C22 RAP A 108      10.509  -8.120   1.630  1.00 17.77    -0.026 C 
HETATM   30  C23 RAP A 108      11.077  -9.372   2.262  1.00 15.64     0.022 C 
HETATM   31  C24 RAP A 108       9.969 -10.410   2.244  1.00 14.68     0.012 C 
HETATM   32  C25 RAP A 108       9.296 -10.684   0.911  1.00 11.87     0.061 C 
HETATM   33  C26 RAP A 108       7.938 -11.343   1.117  1.00 11.65     0.180 C 
HETATM   34  C27 RAP A 108       6.727 -10.417   1.159  1.00  8.13     0.203 C 
HETATM   35  C28 RAP A 108       6.175 -10.047  -0.255  1.00 10.80     0.163 C 
HETATM   36  C29 RAP A 108       6.951  -8.906  -0.941  1.00  9.60    -0.019 C 
HETATM   37  C30 RAP A 108       7.726  -9.095  -2.009  1.00  8.55    -0.025 C 
HETATM   38  C31 RAP A 108       8.526  -8.075  -2.832  1.00  8.43     0.079 C 
HETATM   39  C32 RAP A 108       7.789  -7.781  -4.138  1.00 10.69     0.157 C 
HETATM   40  C33 RAP A 108       6.552  -6.897  -4.015  1.00  6.51     0.095 C 
HETATM   41  C34 RAP A 108       5.401  -7.396  -4.863  1.00  9.62     0.132 C 
HETATM   42  C43 RAP A 108       4.164  -1.711  -7.604  1.00 11.25     0.005 C 
HETATM   43  C44 RAP A 108      11.690  -4.497  -3.808  1.00 14.40     0.029 C 
HETATM   44  C45 RAP A 108      11.541  -9.103   3.687  1.00  9.23     0.005 C 
HETATM   45  C46 RAP A 108      10.181 -11.532  -0.005  1.00 15.99     0.008 C 
HETATM   46  C47 RAP A 108       6.772  -7.549  -0.288  1.00 14.60     0.029 C 
HETATM   47  C48 RAP A 108       9.912  -8.664  -3.140  1.00  9.37     0.013 C 
ENDROOT
BRANCH  41  48
HETATM   48  C35 RAP A 108       3.975  -6.917  -4.522  1.00  9.58     0.028 C 
HETATM   49  C49 RAP A 108       3.948  -6.029  -3.312  1.00  8.29     0.003 C 
BRANCH  48  50
HETATM   50  C36 RAP A 108       3.002  -8.082  -4.352  1.00 10.31     0.003 C 
BRANCH  50  51
HETATM   51  C37 RAP A 108       2.225  -8.162  -3.036  1.00 22.90     0.003 C 
HETATM   52  C38 RAP A 108       0.721  -8.037  -3.304  1.00 14.17     0.032 C 
HETATM   53  C39 RAP A 108      -0.112  -7.991  -2.022  1.00 34.20     0.142 C 
HETATM   54  C40 RAP A 108       0.237  -9.218  -1.111  1.00 38.24     0.138 C 
HETATM   55  C41 RAP A 108       1.750  -9.378  -0.861  1.00 16.32     0.032 C 
HETATM   56  C42 RAP A 108       2.520  -9.390  -2.174  1.00 14.05     0.003 C 
BRANCH  53  57
HETATM   57  O12 RAP A 108      -1.459  -8.043  -2.419  1.00 30.82    -0.352 OA
HETATM   58  C52 RAP A 108      -1.851  -9.154  -3.149  1.00 28.14     0.174 C 
ENDBRANCH  53  57
BRANCH  54  59
HETATM   59  O13 RAP A 108      -0.430  -9.075   0.141  1.00 28.84    -0.382 OA
HETATM   60  HO3 RAP A 108      -0.442  -9.923   0.602  1.00 13.32     0.210 HD
ENDBRANCH  54  59
ENDBRANCH  50  51
ENDBRANCH  48  50
ENDBRANCH  41  48
BRANCH  35  61
HETATM   61  O10 RAP A 108       6.231 -11.229  -1.064  1.00 12.16    -0.378 OA
HETATM   62  HO1 RAP A 108       6.304 -12.028  -0.521  1.00 13.32     0.211 HD
ENDBRANCH  35  61
BRANCH  16  63
HETATM   63  O6  RAP A 108       7.092  -1.167  -7.981  1.00 14.16    -0.358 OA
HETATM   64  HO6 RAP A 108       6.326  -0.592  -7.893  1.00 13.32     0.213 HD
ENDBRANCH  16  63
BRANCH  34  65
HETATM   65  O9  RAP A 108       5.688 -11.068   1.840  1.00 23.09    -0.344 OA
HETATM   66  C51 RAP A 108       4.520 -10.339   1.986  1.00 19.04     0.175 C 
ENDBRANCH  34  65
BRANCH  23  67
HETATM   67  O7  RAP A 108      10.272  -1.975  -3.802  1.00 20.17    -0.350 OA
HETATM   68  C50 RAP A 108      10.410  -1.087  -2.739  1.00 28.36     0.175 C 
ENDBRANCH  23  67
TORSDOF 9
ENDMDL
MODEL 7
REMARK VINA RESULT:    -6.183     10.464     16.881
REMARK INTER + INTRA:         -10.924
REMARK INTER:                  -8.232
REMARK INTRA:                  -2.692
REMARK UNBOUND:                -2.030
REMARK  9 active torsions:
REMARK  status: ('A' for Active; 'I' for Inactive)
REMARK    1  A    between atoms: O6_12  and  C10_19 
REMARK    2  A    between atoms: O7_14  and  C16_29 
REMARK    3  A    between atoms: O9_18  and  C27_40 
REMARK    4  A    between atoms: O10_20  and  C28_41 
REMARK    5  A    between atoms: O12_24  and  C39_52 
REMARK    6  A    between atoms: O13_26  and  C40_53 
REMARK    7  A    between atoms: C34_47  and  C35_48 
REMARK    8  A    between atoms: C35_48  and  C36_49 
REMARK    9  A    between atoms: C36_49  and  C37_50 
ROOT
HETATM    1  C1  RAP A 108       2.268  -8.739  -0.882  1.00  5.98     0.292 C 
HETATM    2  O1  RAP A 108       3.492  -8.953  -1.571  1.00  9.08    -0.302 OA
HETATM    3  C2  RAP A 108       0.911  -8.934  -1.558  1.00  6.42     0.171 C 
HETATM    4  O2  RAP A 108       2.320  -8.358   0.285  1.00 14.08    -0.262 OA
HETATM    5  C3  RAP A 108      -0.054  -9.678  -0.647  1.00  5.50     0.033 C 
HETATM    6  O3  RAP A 108       0.636  -7.729  -3.935  1.00 10.38    -0.264 OA
HETATM    7  C4  RAP A 108       0.233 -11.169  -0.540  1.00  4.49     0.004 C 
HETATM    8  O4  RAP A 108      -0.189 -10.010  -5.743  1.00 10.60    -0.281 OA
HETATM    9  C5  RAP A 108       0.252 -11.748  -1.943  1.00  4.19     0.024 C 
HETATM   10  O5  RAP A 108       2.870 -10.768  -5.473  1.00 10.76    -0.332 OA
HETATM   11  C6  RAP A 108       1.282 -11.065  -2.789  1.00  3.25     0.105 C 
HETATM   12  N7  RAP A 108       0.938  -9.635  -2.846  1.00  8.46    -0.307 N 
HETATM   13  C8  RAP A 108       0.835  -8.950  -3.995  1.00 10.06     0.297 C 
HETATM   14  O8  RAP A 108      10.314 -11.939   4.375  1.00 18.31    -0.293 OA
HETATM   15  C9  RAP A 108       0.864  -9.569  -5.264  1.00 11.13     0.279 C 
HETATM   16  C10 RAP A 108       2.161  -9.714  -6.081  1.00 16.59     0.246 C 
HETATM   17  C11 RAP A 108       3.059  -8.409  -6.072  1.00 10.40     0.059 C 
HETATM   18  O11 RAP A 108       4.098 -11.535  -0.246  1.00  9.49    -0.296 OA
HETATM   19  C12 RAP A 108       4.472  -8.698  -6.629  1.00 12.17     0.008 C 
HETATM   20  C13 RAP A 108       5.065  -9.931  -5.963  1.00 12.80     0.030 C 
HETATM   21  C14 RAP A 108       4.119 -11.128  -5.946  1.00 10.37     0.121 C 
HETATM   22  C15 RAP A 108       4.624 -12.166  -4.959  1.00  5.94     0.064 C 
HETATM   23  C16 RAP A 108       5.896 -12.912  -5.343  1.00  9.79     0.136 C 
HETATM   24  C17 RAP A 108       6.310 -13.887  -4.261  1.00 15.52    -0.017 C 
HETATM   25  C18 RAP A 108       7.439 -13.659  -3.603  1.00 14.38    -0.006 C 
HETATM   26  C19 RAP A 108       7.957 -14.496  -2.511  1.00  9.73    -0.001 C 
HETATM   27  C20 RAP A 108       9.126 -14.192  -1.966  1.00 10.26    -0.000 C 
HETATM   28  C21 RAP A 108       9.644 -14.936  -0.803  1.00 11.40    -0.005 C 
HETATM   29  C22 RAP A 108      10.698 -14.522  -0.125  1.00 17.77    -0.026 C 
HETATM   30  C23 RAP A 108      11.209 -15.181   1.137  1.00 15.64     0.022 C 
HETATM   31  C24 RAP A 108      11.237 -14.105   2.209  1.00 14.68     0.012 C 
HETATM   32  C25 RAP A 108       9.960 -13.319   2.438  1.00 11.87     0.061 C 
HETATM   33  C26 RAP A 108      10.254 -12.005   3.150  1.00 11.65     0.180 C 
HETATM   34  C27 RAP A 108      10.456 -10.778   2.267  1.00  8.13     0.203 C 
HETATM   35  C28 RAP A 108       9.120 -10.086   1.845  1.00 10.80     0.163 C 
HETATM   36  C29 RAP A 108       8.426 -10.763   0.647  1.00  9.60    -0.019 C 
HETATM   37  C30 RAP A 108       7.284 -11.440   0.758  1.00  8.55    -0.025 C 
HETATM   38  C31 RAP A 108       6.445 -12.131  -0.327  1.00  8.43     0.079 C 
HETATM   39  C32 RAP A 108       5.229 -11.267  -0.663  1.00 10.69     0.157 C 
HETATM   40  C33 RAP A 108       5.512 -10.024  -1.498  1.00  6.51     0.095 C 
HETATM   41  C34 RAP A 108       4.748  -8.812  -1.005  1.00  9.62     0.132 C 
HETATM   42  C43 RAP A 108       2.434  -7.168  -6.776  1.00 11.25     0.005 C 
HETATM   43  C44 RAP A 108       5.373 -15.090  -4.051  1.00 14.40     0.029 C 
HETATM   44  C45 RAP A 108      12.597 -15.768   0.925  1.00  9.23     0.005 C 
HETATM   45  C46 RAP A 108       8.923 -14.138   3.210  1.00 15.99     0.008 C 
HETATM   46  C47 RAP A 108       9.163 -10.608  -0.669  1.00 14.60     0.029 C 
HETATM   47  C48 RAP A 108       5.981 -13.498   0.200  1.00  9.37     0.013 C 
ENDROOT
BRANCH  41  48
HETATM   48  C35 RAP A 108       5.243  -7.412  -1.420  1.00  9.58     0.028 C 
HETATM   49  C49 RAP A 108       5.285  -6.458  -0.261  1.00  8.29     0.003 C 
BRANCH  48  50
HETATM   50  C36 RAP A 108       4.418  -6.827  -2.565  1.00 10.31     0.003 C 
BRANCH  50  51
HETATM   51  C37 RAP A 108       5.144  -6.552  -3.884  1.00 22.90     0.003 C 
HETATM   52  C38 RAP A 108       4.864  -5.119  -4.350  1.00 14.17     0.032 C 
HETATM   53  C39 RAP A 108       5.463  -4.810  -5.723  1.00 34.20     0.142 C 
HETATM   54  C40 RAP A 108       6.991  -5.158  -5.732  1.00 38.24     0.138 C 
HETATM   55  C41 RAP A 108       7.292  -6.586  -5.232  1.00 16.32     0.032 C 
HETATM   56  C42 RAP A 108       6.646  -6.834  -3.876  1.00 14.05     0.003 C 
BRANCH  53  57
HETATM   57  O12 RAP A 108       5.273  -3.435  -5.941  1.00 30.82    -0.352 OA
HETATM   58  C52 RAP A 108       5.587  -2.587  -4.890  1.00 28.14     0.174 C 
ENDBRANCH  53  57
BRANCH  54  59
HETATM   59  O13 RAP A 108       7.496  -5.013  -7.058  1.00 28.84    -0.382 OA
HETATM   60  HO3 RAP A 108       7.546  -4.076  -7.286  1.00 13.32     0.210 HD
ENDBRANCH  54  59
ENDBRANCH  50  51
ENDBRANCH  48  50
ENDBRANCH  41  48
BRANCH  35  61
HETATM   61  O10 RAP A 108       8.248 -10.100   2.983  1.00 12.16    -0.378 OA
HETATM   62  HO1 RAP A 108       7.833  -9.236   3.124  1.00 13.32     0.211 HD
ENDBRANCH  35  61
BRANCH  16  63
HETATM   63  O6  RAP A 108       1.820 -10.032  -7.434  1.00 14.16    -0.358 OA
HETATM   64  HO6 RAP A 108       2.567 -10.490  -7.830  1.00 13.32     0.213 HD
ENDBRANCH  16  63
BRANCH  34  65
HETATM   65  O9  RAP A 108      11.194  -9.825   2.985  1.00 23.09    -0.344 OA
HETATM   66  C51 RAP A 108      11.430  -8.631   2.325  1.00 19.04     0.175 C 
ENDBRANCH  34  65
BRANCH  23  67
HETATM   67  O7  RAP A 108       5.642 -13.609  -6.522  1.00 20.17    -0.350 OA
HETATM   68  C50 RAP A 108       6.618 -13.524  -7.511  1.00 28.36     0.175 C 
ENDBRANCH  23  67
TORSDOF 9
ENDMDL
MODEL 8
REMARK VINA RESULT:    -6.092     13.886     19.417
REMARK INTER + INTRA:         -10.794
REMARK INTER:                  -8.553
REMARK INTRA:                  -2.241
REMARK UNBOUND:                -2.030
REMARK  9 active torsions:
REMARK  status: ('A' for Active; 'I' for Inactive)
REMARK    1  A    between atoms: O6_12  and  C10_19 
REMARK    2  A    between atoms: O7_14  and  C16_29 
REMARK    3  A    between atoms: O9_18  and  C27_40 
REMARK    4  A    between atoms: O10_20  and  C28_41 
REMARK    5  A    between atoms: O12_24  and  C39_52 
REMARK    6  A    between atoms: O13_26  and  C40_53 
REMARK    7  A    between atoms: C34_47  and  C35_48 
REMARK    8  A    between atoms: C35_48  and  C36_49 
REMARK    9  A    between atoms: C36_49  and  C37_50 
ROOT
HETATM    1  C1  RAP A 108       4.560 -12.548   2.789  1.00  5.98     0.292 C 
HETATM    2  O1  RAP A 108       5.682 -12.706   1.930  1.00  9.08    -0.302 OA
HETATM    3  C2  RAP A 108       3.871 -13.740   3.451  1.00  6.42     0.171 C 
HETATM    4  O2  RAP A 108       4.126 -11.413   2.970  1.00 14.08    -0.262 OA
HETATM    5  C3  RAP A 108       3.558 -13.451   4.912  1.00  5.50     0.033 C 
HETATM    6  O3  RAP A 108       3.257 -15.764   1.806  1.00 10.38    -0.264 OA
HETATM    7  C4  RAP A 108       4.779 -13.507   5.820  1.00  4.49     0.004 C 
HETATM    8  O4  RAP A 108       4.590 -18.129   3.138  1.00 10.60    -0.281 OA
HETATM    9  C5  RAP A 108       5.442 -14.860   5.638  1.00  4.19     0.024 C 
HETATM   10  O5  RAP A 108       7.198 -16.781   1.963  1.00 10.76    -0.332 OA
HETATM   11  C6  RAP A 108       5.830 -15.077   4.208  1.00  3.25     0.105 C 
HETATM   12  N7  RAP A 108       4.604 -15.009   3.395  1.00  8.46    -0.307 N 
HETATM   13  C8  RAP A 108       4.257 -15.957   2.511  1.00 10.06     0.297 C 
HETATM   14  O8  RAP A 108      11.463  -5.144   2.392  1.00 18.31    -0.293 OA
HETATM   15  C9  RAP A 108       4.931 -17.193   2.405  1.00 11.13     0.279 C 
HETATM   16  C10 RAP A 108       6.077 -17.424   1.403  1.00 16.59     0.246 C 
HETATM   17  C11 RAP A 108       5.791 -16.815  -0.031  1.00 10.40     0.059 C 
HETATM   18  O11 RAP A 108       7.669 -11.738   3.905  1.00  9.49    -0.296 OA
HETATM   19  C12 RAP A 108       7.072 -16.791  -0.895  1.00 12.17     0.008 C 
HETATM   20  C13 RAP A 108       8.228 -16.175  -0.118  1.00 12.80     0.030 C 
HETATM   21  C14 RAP A 108       8.401 -16.761   1.280  1.00 10.37     0.121 C 
HETATM   22  C15 RAP A 108       9.302 -15.859   2.104  1.00  5.94     0.064 C 
HETATM   23  C16 RAP A 108      10.774 -15.820   1.712  1.00  9.79     0.136 C 
HETATM   24  C17 RAP A 108      11.552 -14.859   2.585  1.00 15.52    -0.017 C 
HETATM   25  C18 RAP A 108      12.062 -13.769   2.027  1.00 14.38    -0.006 C 
HETATM   26  C19 RAP A 108      12.814 -12.732   2.748  1.00  9.73    -0.001 C 
HETATM   27  C20 RAP A 108      13.320 -11.712   2.067  1.00 10.26    -0.000 C 
HETATM   28  C21 RAP A 108      13.995 -10.595   2.752  1.00 11.40    -0.005 C 
HETATM   29  C22 RAP A 108      14.320  -9.485   2.117  1.00 17.77    -0.026 C 
HETATM   30  C23 RAP A 108      14.913  -8.265   2.789  1.00 15.64     0.022 C 
HETATM   31  C24 RAP A 108      13.995  -7.100   2.463  1.00 14.68     0.012 C 
HETATM   32  C25 RAP A 108      12.518  -7.272   2.768  1.00 11.87     0.061 C 
HETATM   33  C26 RAP A 108      11.682  -6.278   1.973  1.00 11.65     0.180 C 
HETATM   34  C27 RAP A 108      11.122  -6.765   0.640  1.00  8.13     0.203 C 
HETATM   35  C28 RAP A 108       9.785  -7.562   0.779  1.00 10.80     0.163 C 
HETATM   36  C29 RAP A 108       9.985  -9.039   1.170  1.00  9.60    -0.019 C 
HETATM   37  C30 RAP A 108       9.643  -9.527   2.362  1.00  8.55    -0.025 C 
HETATM   38  C31 RAP A 108       9.732 -10.964   2.895  1.00  8.43     0.079 C 
HETATM   39  C32 RAP A 108       8.343 -11.603   2.879  1.00 10.69     0.157 C 
HETATM   40  C33 RAP A 108       7.820 -12.012   1.507  1.00  6.51     0.095 C 
HETATM   41  C34 RAP A 108       6.358 -11.662   1.320  1.00  9.62     0.132 C 
HETATM   42  C43 RAP A 108       4.616 -17.476  -0.811  1.00 11.25     0.005 C 
HETATM   43  C44 RAP A 108      11.701 -15.268   4.062  1.00 14.40     0.029 C 
HETATM   44  C45 RAP A 108      16.324  -7.996   2.287  1.00  9.23     0.005 C 
HETATM   45  C46 RAP A 108      12.232  -7.150   4.267  1.00 15.99     0.008 C 
HETATM   46  C47 RAP A 108      10.620  -9.890   0.088  1.00 14.60     0.029 C 
HETATM   47  C48 RAP A 108      10.269 -10.927   4.334  1.00  9.37     0.013 C 
ENDROOT
BRANCH  41  48
HETATM   48  C35 RAP A 108       5.799 -11.580  -0.115  1.00  9.58     0.028 C 
HETATM   49  C49 RAP A 108       5.994 -12.860  -0.875  1.00  8.29     0.003 C 
BRANCH  48  50
HETATM   50  C36 RAP A 108       6.381 -10.401  -0.893  1.00 10.31     0.003 C 
BRANCH  50  51
HETATM   51  C37 RAP A 108       5.653  -9.059  -0.781  1.00 22.90     0.003 C 
HETATM   52  C38 RAP A 108       4.144  -9.289  -0.639  1.00 14.17     0.032 C 
HETATM   53  C39 RAP A 108       3.339  -7.989  -0.640  1.00 34.20     0.142 C 
HETATM   54  C40 RAP A 108       3.904  -7.008   0.445  1.00 38.24     0.138 C 
HETATM   55  C41 RAP A 108       5.427  -6.795   0.337  1.00 16.32     0.032 C 
HETATM   56  C42 RAP A 108       6.163  -8.127   0.317  1.00 14.05     0.003 C 
BRANCH  53  57
HETATM   57  O12 RAP A 108       2.013  -8.340  -0.340  1.00 30.82    -0.352 OA
HETATM   58  C52 RAP A 108       1.139  -8.448  -1.411  1.00 28.14     0.174 C 
ENDBRANCH  53  57
BRANCH  54  59
HETATM   59  O13 RAP A 108       3.246  -5.748   0.324  1.00 28.84    -0.382 OA
HETATM   60  HO3 RAP A 108       3.857  -5.097  -0.044  1.00 13.32     0.210 HD
ENDBRANCH  54  59
ENDBRANCH  50  51
ENDBRANCH  48  50
ENDBRANCH  41  48
BRANCH  35  61
HETATM   61  O10 RAP A 108       8.989  -6.900   1.771  1.00 12.16    -0.378 OA
HETATM   62  HO1 RAP A 108       9.505  -6.243   2.261  1.00 13.32     0.211 HD
ENDBRANCH  35  61
BRANCH  16  63
HETATM   63  O6  RAP A 108       6.299 -18.831   1.273  1.00 14.16    -0.358 OA
HETATM   64  HO6 RAP A 108       5.933 -19.263   2.050  1.00 13.32     0.213 HD
ENDBRANCH  16  63
BRANCH  34  65
HETATM   65  O9  RAP A 108      10.845  -5.650  -0.165  1.00 23.09    -0.344 OA
HETATM   66  C51 RAP A 108      10.327  -5.932  -1.418  1.00 19.04     0.175 C 
ENDBRANCH  34  65
BRANCH  23  67
HETATM   67  O7  RAP A 108      11.289 -17.105   1.864  1.00 20.17    -0.350 OA
HETATM   68  C50 RAP A 108      12.064 -17.587   0.812  1.00 28.36     0.175 C 
ENDBRANCH  23  67
TORSDOF 9
ENDMDL
MODEL 9
REMARK VINA RESULT:    -5.996      8.171     13.507
REMARK INTER + INTRA:         -10.655
REMARK INTER:                  -8.097
REMARK INTRA:                  -2.558
REMARK UNBOUND:                -2.030
REMARK  9 active torsions:
REMARK  status: ('A' for Active; 'I' for Inactive)
REMARK    1  A    between atoms: O6_12  and  C10_19 
REMARK    2  A    between atoms: O7_14  and  C16_29 
REMARK    3  A    between atoms: O9_18  and  C27_40 
REMARK    4  A    between atoms: O10_20  and  C28_41 
REMARK    5  A    between atoms: O12_24  and  C39_52 
REMARK    6  A    between atoms: O13_26  and  C40_53 
REMARK    7  A    between atoms: C34_47  and  C35_48 
REMARK    8  A    between atoms: C35_48  and  C36_49 
REMARK    9  A    between atoms: C36_49  and  C37_50 
ROOT
HETATM    1  C1  RAP A 108       0.213 -10.180  -4.412  1.00  5.98     0.292 C 
HETATM    2  O1  RAP A 108       1.614 -10.366  -4.265  1.00  9.08    -0.302 OA
HETATM    3  C2  RAP A 108      -0.781 -10.598  -3.328  1.00  6.42     0.171 C 
HETATM    4  O2  RAP A 108      -0.199  -9.693  -5.463  1.00 14.08    -0.262 OA
HETATM    5  C3  RAP A 108      -1.839  -9.527  -3.111  1.00  5.50     0.033 C 
HETATM    6  O3  RAP A 108      -0.464 -13.087  -2.388  1.00 10.38    -0.264 OA
HETATM    7  C4  RAP A 108      -1.333  -8.316  -2.340  1.00  4.49     0.004 C 
HETATM    8  O4  RAP A 108      -0.202 -12.642   0.592  1.00 10.60    -0.281 OA
HETATM    9  C5  RAP A 108      -0.741  -8.803  -1.030  1.00  4.19     0.024 C 
HETATM   10  O5  RAP A 108       2.676 -11.629  -0.242  1.00 10.76    -0.332 OA
HETATM   11  C6  RAP A 108       0.367  -9.781  -1.276  1.00  3.25     0.105 C 
HETATM   12  N7  RAP A 108      -0.196 -10.918  -2.022  1.00  8.46    -0.307 N 
HETATM   13  C8  RAP A 108      -0.034 -12.196  -1.644  1.00 10.06     0.297 C 
HETATM   14  O8  RAP A 108       6.488  -3.621  -8.909  1.00 18.31    -0.293 OA
HETATM   15  C9  RAP A 108       0.530 -12.564  -0.403  1.00 11.13     0.279 C 
HETATM   16  C10 RAP A 108       2.028 -12.880  -0.240  1.00 16.59     0.246 C 
HETATM   17  C11 RAP A 108       2.614 -13.770  -1.411  1.00 10.40     0.059 C 
HETATM   18  O11 RAP A 108       2.208  -7.509  -3.739  1.00  9.49    -0.296 OA
HETATM   19  C12 RAP A 108       4.160 -13.797  -1.375  1.00 12.17     0.008 C 
HETATM   20  C13 RAP A 108       4.714 -12.383  -1.259  1.00 12.80     0.030 C 
HETATM   21  C14 RAP A 108       4.054 -11.560  -0.157  1.00 10.37     0.121 C 
HETATM   22  C15 RAP A 108       4.384 -10.090  -0.349  1.00  5.94     0.064 C 
HETATM   23  C16 RAP A 108       5.826  -9.673  -0.086  1.00  9.79     0.136 C 
HETATM   24  C17 RAP A 108       6.028  -8.196  -0.349  1.00 15.52    -0.017 C 
HETATM   25  C18 RAP A 108       6.810  -7.834  -1.358  1.00 14.38    -0.006 C 
HETATM   26  C19 RAP A 108       7.079  -6.445  -1.754  1.00  9.73    -0.001 C 
HETATM   27  C20 RAP A 108       7.922  -6.210  -2.750  1.00 10.26    -0.000 C 
HETATM   28  C21 RAP A 108       8.150  -4.843  -3.253  1.00 11.40    -0.005 C 
HETATM   29  C22 RAP A 108       8.822  -4.615  -4.366  1.00 17.77    -0.026 C 
HETATM   30  C23 RAP A 108       8.994  -3.246  -4.988  1.00 15.64     0.022 C 
HETATM   31  C24 RAP A 108       8.464  -3.344  -6.408  1.00 14.68     0.012 C 
HETATM   32  C25 RAP A 108       7.062  -3.894  -6.590  1.00 11.87     0.061 C 
HETATM   33  C26 RAP A 108       6.853  -4.383  -8.017  1.00 11.65     0.180 C 
HETATM   34  C27 RAP A 108       7.108  -5.864  -8.278  1.00  8.13     0.203 C 
HETATM   35  C28 RAP A 108       5.886  -6.776  -7.938  1.00 10.80     0.163 C 
HETATM   36  C29 RAP A 108       5.769  -7.118  -6.440  1.00  9.60    -0.019 C 
HETATM   37  C30 RAP A 108       4.801  -6.640  -5.659  1.00  8.55    -0.025 C 
HETATM   38  C31 RAP A 108       4.516  -6.910  -4.175  1.00  8.43     0.079 C 
HETATM   39  C32 RAP A 108       3.344  -7.884  -4.048  1.00 10.69     0.157 C 
HETATM   40  C33 RAP A 108       3.655  -9.339  -4.381  1.00  6.51     0.095 C 
HETATM   41  C34 RAP A 108       2.560  -9.988  -5.203  1.00  9.62     0.132 C 
HETATM   42  C43 RAP A 108       2.043 -15.217  -1.494  1.00 11.25     0.005 C 
HETATM   43  C44 RAP A 108       5.313  -7.240   0.623  1.00 14.40     0.029 C 
HETATM   44  C45 RAP A 108      10.456  -2.825  -4.986  1.00  9.23     0.005 C 
HETATM   45  C46 RAP A 108       5.996  -2.864  -6.204  1.00 15.99     0.008 C 
HETATM   46  C47 RAP A 108       6.861  -8.036  -5.924  1.00 14.60     0.029 C 
HETATM   47  C48 RAP A 108       4.163  -5.582  -3.488  1.00  9.37     0.013 C 
ENDROOT
BRANCH  41  48
HETATM   48  C35 RAP A 108       2.897 -11.265  -5.999  1.00  9.58     0.028 C 
HETATM   49  C49 RAP A 108       4.147 -11.932  -5.500  1.00  8.29     0.003 C 
BRANCH  48  50
HETATM   50  C36 RAP A 108       2.995 -10.998  -7.500  1.00 10.31     0.003 C 
BRANCH  50  51
HETATM   51  C37 RAP A 108       2.022  -9.979  -8.097  1.00 22.90     0.003 C 
HETATM   52  C38 RAP A 108       2.789  -8.948  -8.933  1.00 14.17     0.032 C 
HETATM   53  C39 RAP A 108       1.894  -7.828  -9.467  1.00 34.20     0.142 C 
HETATM   54  C40 RAP A 108       0.672  -8.438 -10.236  1.00 38.24     0.138 C 
HETATM   55  C41 RAP A 108      -0.089  -9.503  -9.420  1.00 16.32     0.032 C 
HETATM   56  C42 RAP A 108       0.863 -10.570  -8.898  1.00 14.05     0.003 C 
BRANCH  53  57
HETATM   57  O12 RAP A 108       2.688  -7.064 -10.338  1.00 30.82    -0.352 OA
HETATM   58  C52 RAP A 108       3.435  -7.761 -11.275  1.00 28.14     0.174 C 
ENDBRANCH  53  57
BRANCH  54  59
HETATM   59  O13 RAP A 108      -0.229  -7.390 -10.588  1.00 28.84    -0.382 OA
HETATM   60  HO3 RAP A 108       0.252  -6.688 -11.045  1.00 13.32     0.210 HD
ENDBRANCH  54  59
ENDBRANCH  50  51
ENDBRANCH  48  50
ENDBRANCH  41  48
BRANCH  35  61
HETATM   61  O10 RAP A 108       4.703  -6.094  -8.374  1.00 12.16    -0.378 OA
HETATM   62  HO1 RAP A 108       4.499  -5.337  -7.806  1.00 13.32     0.211 HD
ENDBRANCH  35  61
BRANCH  16  63
HETATM   63  O6  RAP A 108       2.223 -13.561   1.003  1.00 14.16    -0.358 OA
HETATM   64  HO6 RAP A 108       1.476 -14.150   1.140  1.00 13.32     0.213 HD
ENDBRANCH  16  63
BRANCH  34  65
HETATM   65  O9  RAP A 108       7.374  -6.040  -9.644  1.00 23.09    -0.344 OA
HETATM   66  C51 RAP A 108       7.566  -7.349 -10.052  1.00 19.04     0.175 C 
ENDBRANCH  34  65
BRANCH  23  67
HETATM   67  O7  RAP A 108       6.112  -9.950   1.249  1.00 20.17    -0.350 OA
HETATM   68  C50 RAP A 108       7.348 -10.538   1.504  1.00 28.36     0.175 C 
ENDBRANCH  23  67
TORSDOF 9
ENDMDL
