MODEL 1
REMARK VINA RESULT:   -10.853      0.000      0.000
REMARK INTER + INTRA:         -17.918
REMARK INTER:                 -15.612
REMARK INTRA:                  -2.306
REMARK UNBOUND:                -2.306
REMARK  9 active torsions:
REMARK  status: ('A' for Active; 'I' for Inactive)
REMARK    1  A    between atoms: O6_12  and  C10_19 
REMARK    2  A    between atoms: O7_14  and  C16_29 
REMARK    3  A    between atoms: O9_18  and  C27_40 
REMARK    4  A    between atoms: O10_20  and  C28_41 
REMARK    5  A    between atoms: O12_24  and  C39_52 
REMARK    6  A    between atoms: O13_26  and  C40_53 
REMARK    7  A    between atoms: C34_47  and  C35_48 
REMARK    8  A    between atoms: C35_48  and  C36_49 
REMARK    9  A    between atoms: C36_49  and  C37_50 
ROOT
HETATM    1  C1  RAP A 108       4.782   8.391  12.959  1.00  5.98     0.292 C 
HETATM    2  O1  RAP A 108       4.443   9.476  13.812  1.00  9.08    -0.302 OA
HETATM    3  C2  RAP A 108       4.298   6.966  13.224  1.00  6.42     0.171 C 
HETATM    4  O2  RAP A 108       5.514   8.619  11.998  1.00 14.08    -0.262 OA
HETATM    5  C3  RAP A 108       3.816   6.303  11.942  1.00  5.50     0.033 C 
HETATM    6  O3  RAP A 108       4.673   6.079  15.724  1.00 10.38    -0.264 OA
HETATM    7  C4  RAP A 108       2.457   6.799  11.471  1.00  4.49     0.004 C 
HETATM    8  O4  RAP A 108       1.892   5.225  16.550  1.00 10.60    -0.281 OA
HETATM    9  C5  RAP A 108       1.468   6.620  12.609  1.00  4.19     0.024 C 
HETATM   10  O5  RAP A 108       1.457   8.350  16.766  1.00 10.76    -0.332 OA
HETATM   11  C6  RAP A 108       1.916   7.367  13.827  1.00  3.25     0.105 C 
HETATM   12  N7  RAP A 108       3.231   6.835  14.222  1.00  8.46    -0.307 N 
HETATM   13  C8  RAP A 108       3.512   6.421  15.467  1.00 10.06     0.297 C 
HETATM   14  O8  RAP A 108       3.925  17.654   8.949  1.00 18.31    -0.293 OA
HETATM   15  C9  RAP A 108       2.528   6.284  16.472  1.00 11.13     0.279 C 
HETATM   16  C10 RAP A 108       2.218   7.405  17.481  1.00 16.59     0.246 C 
HETATM   17  C11 RAP A 108       3.515   8.108  18.056  1.00 10.40     0.059 C 
HETATM   18  O11 RAP A 108       2.453  10.660  11.961  1.00  9.49    -0.296 OA
HETATM   19  C12 RAP A 108       3.158   9.412  18.807  1.00 12.17     0.008 C 
HETATM   20  C13 RAP A 108       2.238  10.279  17.960  1.00 12.80     0.030 C 
HETATM   21  C14 RAP A 108       1.048   9.520  17.381  1.00 10.37     0.121 C 
HETATM   22  C15 RAP A 108       0.408  10.339  16.274  1.00  5.94     0.064 C 
HETATM   23  C16 RAP A 108      -0.337  11.599  16.699  1.00  9.79     0.136 C 
HETATM   24  C17 RAP A 108      -0.894  12.339  15.501  1.00 15.52    -0.017 C 
HETATM   25  C18 RAP A 108      -0.397  13.534  15.211  1.00 14.38    -0.006 C 
HETATM   26  C19 RAP A 108      -0.813  14.360  14.068  1.00  9.73    -0.001 C 
HETATM   27  C20 RAP A 108      -0.278  15.563  13.913  1.00 10.26    -0.000 C 
HETATM   28  C21 RAP A 108      -0.584  16.390  12.732  1.00 11.40    -0.005 C 
HETATM   29  C22 RAP A 108       0.090  17.492  12.461  1.00 17.77    -0.026 C 
HETATM   30  C23 RAP A 108      -0.105  18.320  11.209  1.00 15.64     0.022 C 
HETATM   31  C24 RAP A 108       1.253  18.415  10.535  1.00 14.68     0.012 C 
HETATM   32  C25 RAP A 108       1.987  17.114  10.265  1.00 11.87     0.061 C 
HETATM   33  C26 RAP A 108       3.474  17.366  10.054  1.00 11.65     0.180 C 
HETATM   34  C27 RAP A 108       4.372  17.230  11.280  1.00  8.13     0.203 C 
HETATM   35  C28 RAP A 108       4.808  15.759  11.573  1.00 10.80     0.163 C 
HETATM   36  C29 RAP A 108       3.745  14.941  12.332  1.00  9.60    -0.019 C 
HETATM   37  C30 RAP A 108       3.065  13.940  11.774  1.00  8.55    -0.025 C 
HETATM   38  C31 RAP A 108       2.015  13.005  12.391  1.00  8.43     0.079 C 
HETATM   39  C32 RAP A 108       2.649  11.644  12.681  1.00 10.69     0.157 C 
HETATM   40  C33 RAP A 108       3.582  11.594  13.886  1.00  6.51     0.095 C 
HETATM   41  C34 RAP A 108       4.835  10.788  13.610  1.00  9.62     0.132 C 
HETATM   42  C43 RAP A 108       4.429   7.202  18.934  1.00 11.25     0.005 C 
HETATM   43  C44 RAP A 108      -2.027  11.626  14.742  1.00 14.40     0.029 C 
HETATM   44  C45 RAP A 108      -0.637  19.705  11.547  1.00  9.23     0.005 C 
HETATM   45  C46 RAP A 108       1.386  16.363   9.074  1.00 15.99     0.008 C 
HETATM   46  C47 RAP A 108       3.526  15.381  13.767  1.00 14.60     0.029 C 
HETATM   47  C48 RAP A 108       0.856  12.835  11.396  1.00  9.37     0.013 C 
ENDROOT
BRANCH  41  48
HETATM   48  C35 RAP A 108       6.063  11.005  14.517  1.00  9.58     0.028 C 
HETATM   49  C49 RAP A 108       5.684  11.143  15.964  1.00  8.29     0.003 C 
BRANCH  48  50
HETATM   50  C36 RAP A 108       6.906  12.197  14.069  1.00 10.31     0.003 C 
BRANCH  50  51
HETATM   51  C37 RAP A 108       7.512  12.140  12.664  1.00 22.90     0.003 C 
HETATM   52  C38 RAP A 108       7.782  13.559  12.151  1.00 14.17     0.032 C 
HETATM   53  C39 RAP A 108       8.280  13.586  10.704  1.00 34.20     0.142 C 
HETATM   54  C40 RAP A 108       9.521  12.642  10.547  1.00 38.24     0.138 C 
HETATM   55  C41 RAP A 108       9.276  11.220  11.092  1.00 16.32     0.032 C 
HETATM   56  C42 RAP A 108       8.759  11.268  12.523  1.00 14.05     0.003 C 
BRANCH  53  57
HETATM   57  O12 RAP A 108       8.638  14.916  10.430  1.00 30.82    -0.352 OA
HETATM   58  C52 RAP A 108       9.461  15.543  11.353  1.00 28.14     0.174 C 
ENDBRANCH  53  57
BRANCH  54  59
HETATM   59  O13 RAP A 108       9.873  12.558   9.167  1.00 28.84    -0.382 OA
HETATM   60  HO3 RAP A 108      10.337  11.729   9.000  1.00 13.32     0.210 HD
ENDBRANCH  54  59
ENDBRANCH  50  51
ENDBRANCH  48  50
ENDBRANCH  41  48
BRANCH  35  61
HETATM   61  O10 RAP A 108       5.096  15.134  10.316  1.00 12.16    -0.378 OA
HETATM   62  HO1 RAP A 108       5.983  14.747  10.306  1.00 13.32     0.211 HD
ENDBRANCH  35  61
BRANCH  16  63
HETATM   63  O6  RAP A 108       1.470   6.852  18.567  1.00 14.16    -0.358 OA
HETATM   64  HO6 RAP A 108       1.539   7.454  19.314  1.00 13.32     0.213 HD
ENDBRANCH  16  63
BRANCH  34  65
HETATM   65  O9  RAP A 108       5.548  17.962  11.058  1.00 23.09    -0.344 OA
HETATM   66  C51 RAP A 108       6.528  17.826  12.026  1.00 19.04     0.175 C 
ENDBRANCH  34  65
BRANCH  23  67
HETATM   67  O7  RAP A 108      -1.384  11.213  17.533  1.00 20.17    -0.350 OA
HETATM   68  C50 RAP A 108      -1.576  11.984  18.676  1.00 28.36     0.175 C 
ENDBRANCH  23  67
TORSDOF 9
ENDMDL
MODEL 2
REMARK VINA RESULT:   -10.483      1.345      1.580
REMARK INTER + INTRA:         -17.386
REMARK INTER:                 -15.646
REMARK INTRA:                  -1.739
REMARK UNBOUND:                -2.306
REMARK  9 active torsions:
REMARK  status: ('A' for Active; 'I' for Inactive)
REMARK    1  A    between atoms: O6_12  and  C10_19 
REMARK    2  A    between atoms: O7_14  and  C16_29 
REMARK    3  A    between atoms: O9_18  and  C27_40 
REMARK    4  A    between atoms: O10_20  and  C28_41 
REMARK    5  A    between atoms: O12_24  and  C39_52 
REMARK    6  A    between atoms: O13_26  and  C40_53 
REMARK    7  A    between atoms: C34_47  and  C35_48 
REMARK    8  A    between atoms: C35_48  and  C36_49 
REMARK    9  A    between atoms: C36_49  and  C37_50 
ROOT
HETATM    1  C1  RAP A 108       4.764   8.477  12.973  1.00  5.98     0.292 C 
HETATM    2  O1  RAP A 108       4.374   9.561  13.806  1.00  9.08    -0.302 OA
HETATM    3  C2  RAP A 108       4.307   7.043  13.239  1.00  6.42     0.171 C 
HETATM    4  O2  RAP A 108       5.516   8.714  12.030  1.00 14.08    -0.262 OA
HETATM    5  C3  RAP A 108       3.879   6.356  11.951  1.00  5.50     0.033 C 
HETATM    6  O3  RAP A 108       4.634   6.189  15.757  1.00 10.38    -0.264 OA
HETATM    7  C4  RAP A 108       2.521   6.813  11.437  1.00  4.49     0.004 C 
HETATM    8  O4  RAP A 108       1.852   5.275  16.514  1.00 10.60    -0.281 OA
HETATM    9  C5  RAP A 108       1.505   6.621  12.548  1.00  4.19     0.024 C 
HETATM   10  O5  RAP A 108       1.335   8.390  16.686  1.00 10.76    -0.332 OA
HETATM   11  C6  RAP A 108       1.901   7.390  13.771  1.00  3.25     0.105 C 
HETATM   12  N7  RAP A 108       3.216   6.894  14.208  1.00  8.46    -0.307 N 
HETATM   13  C8  RAP A 108       3.472   6.500  15.465  1.00 10.06     0.297 C 
HETATM   14  O8  RAP A 108       3.794  17.678   8.846  1.00 18.31    -0.293 OA
HETATM   15  C9  RAP A 108       2.464   6.348  16.443  1.00 11.13     0.279 C 
HETATM   16  C10 RAP A 108       2.099   7.470  17.431  1.00 16.59     0.246 C 
HETATM   17  C11 RAP A 108       3.361   8.211  18.035  1.00 10.40     0.059 C 
HETATM   18  O11 RAP A 108       2.409  10.678  11.887  1.00  9.49    -0.296 OA
HETATM   19  C12 RAP A 108       2.951   9.512  18.763  1.00 12.17     0.008 C 
HETATM   20  C13 RAP A 108       2.034  10.349  17.882  1.00 12.80     0.030 C 
HETATM   21  C14 RAP A 108       0.881   9.555  17.277  1.00 10.37     0.121 C 
HETATM   22  C15 RAP A 108       0.252  10.347  16.145  1.00  5.94     0.064 C 
HETATM   23  C16 RAP A 108      -0.535  11.592  16.535  1.00  9.79     0.136 C 
HETATM   24  C17 RAP A 108      -1.076  12.307  15.316  1.00 15.52    -0.017 C 
HETATM   25  C18 RAP A 108      -0.601  13.511  15.027  1.00 14.38    -0.006 C 
HETATM   26  C19 RAP A 108      -1.005  14.315  13.865  1.00  9.73    -0.001 C 
HETATM   27  C20 RAP A 108      -0.495  15.530  13.713  1.00 10.26    -0.000 C 
HETATM   28  C21 RAP A 108      -0.788  16.338  12.515  1.00 11.40    -0.005 C 
HETATM   29  C22 RAP A 108      -0.134  17.453  12.251  1.00 17.77    -0.026 C 
HETATM   30  C23 RAP A 108      -0.314  18.264  10.987  1.00 15.64     0.022 C 
HETATM   31  C24 RAP A 108       1.060  18.387  10.350  1.00 14.68     0.012 C 
HETATM   32  C25 RAP A 108       1.833  17.102  10.113  1.00 11.87     0.061 C 
HETATM   33  C26 RAP A 108       3.319  17.389   9.942  1.00 11.65     0.180 C 
HETATM   34  C27 RAP A 108       4.185  17.287  11.193  1.00  8.13     0.203 C 
HETATM   35  C28 RAP A 108       4.648  15.830  11.514  1.00 10.80     0.163 C 
HETATM   36  C29 RAP A 108       3.585  14.992  12.251  1.00  9.60    -0.019 C 
HETATM   37  C30 RAP A 108       2.945  13.970  11.684  1.00  8.55    -0.025 C 
HETATM   38  C31 RAP A 108       1.901  13.015  12.281  1.00  8.43     0.079 C 
HETATM   39  C32 RAP A 108       2.560  11.673  12.603  1.00 10.69     0.157 C 
HETATM   40  C33 RAP A 108       3.460  11.658  13.833  1.00  6.51     0.095 C 
HETATM   41  C34 RAP A 108       4.740  10.881  13.601  1.00  9.62     0.132 C 
HETATM   42  C43 RAP A 108       4.271   7.336  18.947  1.00 11.25     0.005 C 
HETATM   43  C44 RAP A 108      -2.170  11.559  14.533  1.00 14.40     0.029 C 
HETATM   44  C45 RAP A 108      -0.889  19.639  11.296  1.00  9.23     0.005 C 
HETATM   45  C46 RAP A 108       1.285  16.325   8.914  1.00 15.99     0.008 C 
HETATM   46  C47 RAP A 108       3.315  15.441  13.674  1.00 14.60     0.029 C 
HETATM   47  C48 RAP A 108       0.776  12.807  11.256  1.00  9.37     0.013 C 
ENDROOT
BRANCH  41  48
HETATM   48  C35 RAP A 108       5.936  11.136  14.540  1.00  9.58     0.028 C 
HETATM   49  C49 RAP A 108       5.537  11.117  15.987  1.00  8.29     0.003 C 
BRANCH  48  50
HETATM   50  C36 RAP A 108       6.664  12.436  14.203  1.00 10.31     0.003 C 
BRANCH  50  51
HETATM   51  C37 RAP A 108       8.129  12.329  13.772  1.00 22.90     0.003 C 
HETATM   52  C38 RAP A 108       9.036  12.261  15.007  1.00 14.17     0.032 C 
HETATM   53  C39 RAP A 108      10.525  12.271  14.655  1.00 34.20     0.142 C 
HETATM   54  C40 RAP A 108      10.837  11.139  13.615  1.00 38.24     0.138 C 
HETATM   55  C41 RAP A 108       9.909  11.172  12.384  1.00 16.32     0.032 C 
HETATM   56  C42 RAP A 108       8.446  11.188  12.806  1.00 14.05     0.003 C 
BRANCH  53  57
HETATM   57  O12 RAP A 108      11.219  12.040  15.854  1.00 30.82    -0.352 OA
HETATM   58  C52 RAP A 108      10.866  12.824  16.941  1.00 28.14     0.174 C 
ENDBRANCH  53  57
BRANCH  54  59
HETATM   59  O13 RAP A 108      12.190  11.263  13.183  1.00 28.84    -0.382 OA
HETATM   60  HO3 RAP A 108      12.758  11.449  13.941  1.00 13.32     0.210 HD
ENDBRANCH  54  59
ENDBRANCH  50  51
ENDBRANCH  48  50
ENDBRANCH  41  48
BRANCH  35  61
HETATM   61  O10 RAP A 108       4.987  15.200  10.271  1.00 12.16    -0.378 OA
HETATM   62  HO1 RAP A 108       5.943  15.067  10.189  1.00 13.32     0.211 HD
ENDBRANCH  35  61
BRANCH  16  63
HETATM   63  O6  RAP A 108       1.334   6.909  18.502  1.00 14.16    -0.358 OA
HETATM   64  HO6 RAP A 108       0.434   6.780  18.189  1.00 13.32     0.213 HD
ENDBRANCH  16  63
BRANCH  34  65
HETATM   65  O9  RAP A 108       5.348  18.046  10.997  1.00 23.09    -0.344 OA
HETATM   66  C51 RAP A 108       6.103  18.288  12.132  1.00 19.04     0.175 C 
ENDBRANCH  34  65
BRANCH  23  67
HETATM   67  O7  RAP A 108      -1.596  11.188  17.344  1.00 20.17    -0.350 OA
HETATM   68  C50 RAP A 108      -2.042  12.115  18.282  1.00 28.36     0.175 C 
ENDBRANCH  23  67
TORSDOF 9
ENDMDL
MODEL 3
REMARK VINA RESULT:    -8.796      1.667      2.731
REMARK INTER + INTRA:         -14.958
REMARK INTER:                 -12.789
REMARK INTRA:                  -2.170
REMARK UNBOUND:                -2.306
REMARK  9 active torsions:
REMARK  status: ('A' for Active; 'I' for Inactive)
REMARK    1  A    between atoms: O6_12  and  C10_19 
REMARK    2  A    between atoms: O7_14  and  C16_29 
REMARK    3  A    between atoms: O9_18  and  C27_40 
REMARK    4  A    between atoms: O10_20  and  C28_41 
REMARK    5  A    between atoms: O12_24  and  C39_52 
REMARK    6  A    between atoms: O13_26  and  C40_53 
REMARK    7  A    between atoms: C34_47  and  C35_48 
REMARK    8  A    between atoms: C35_48  and  C36_49 
REMARK    9  A    between atoms: C36_49  and  C37_50 
ROOT
HETATM    1  C1  RAP A 108       4.548   8.646  12.717  1.00  5.98     0.292 C 
HETATM    2  O1  RAP A 108       4.151   9.742  13.530  1.00  9.08    -0.302 OA
HETATM    3  C2  RAP A 108       4.148   7.207  13.041  1.00  6.42     0.171 C 
HETATM    4  O2  RAP A 108       5.261   8.877  11.743  1.00 14.08    -0.262 OA
HETATM    5  C3  RAP A 108       3.700   6.467  11.790  1.00  5.50     0.033 C 
HETATM    6  O3  RAP A 108       4.586   6.442  15.571  1.00 10.38    -0.264 OA
HETATM    7  C4  RAP A 108       2.312   6.865  11.309  1.00  4.49     0.004 C 
HETATM    8  O4  RAP A 108       1.863   5.463  16.449  1.00 10.60    -0.281 OA
HETATM    9  C5  RAP A 108       1.341   6.674  12.459  1.00  4.19     0.024 C 
HETATM   10  O5  RAP A 108       1.249   8.563  16.546  1.00 10.76    -0.332 OA
HETATM   11  C6  RAP A 108       1.750   7.493  13.645  1.00  3.25     0.105 C 
HETATM   12  N7  RAP A 108       3.095   7.053  14.051  1.00  8.46    -0.307 N 
HETATM   13  C8  RAP A 108       3.405   6.706  15.309  1.00 10.06     0.297 C 
HETATM   14  O8  RAP A 108       3.139  17.679   8.355  1.00 18.31    -0.293 OA
HETATM   15  C9  RAP A 108       2.436   6.552  16.325  1.00 11.13     0.279 C 
HETATM   16  C10 RAP A 108       2.067   7.692  17.292  1.00 16.59     0.246 C 
HETATM   17  C11 RAP A 108       3.323   8.491  17.830  1.00 10.40     0.059 C 
HETATM   18  O11 RAP A 108       2.087  10.736  11.648  1.00  9.49    -0.296 OA
HETATM   19  C12 RAP A 108       2.895   9.800  18.532  1.00 12.17     0.008 C 
HETATM   20  C13 RAP A 108       1.922  10.580  17.659  1.00 12.80     0.030 C 
HETATM   21  C14 RAP A 108       0.776   9.731  17.118  1.00 10.37     0.121 C 
HETATM   22  C15 RAP A 108       0.085  10.467  15.984  1.00  5.94     0.064 C 
HETATM   23  C16 RAP A 108      -0.730  11.698  16.364  1.00  9.79     0.136 C 
HETATM   24  C17 RAP A 108      -1.334  12.357  15.143  1.00 15.52    -0.017 C 
HETATM   25  C18 RAP A 108      -0.909  13.567  14.803  1.00 14.38    -0.006 C 
HETATM   26  C19 RAP A 108      -1.377  14.321  13.631  1.00  9.73    -0.001 C 
HETATM   27  C20 RAP A 108      -0.913  15.546  13.426  1.00 10.26    -0.000 C 
HETATM   28  C21 RAP A 108      -1.272  16.307  12.215  1.00 11.40    -0.005 C 
HETATM   29  C22 RAP A 108      -0.664  17.434  11.897  1.00 17.77    -0.026 C 
HETATM   30  C23 RAP A 108      -0.912  18.200  10.615  1.00 15.64     0.022 C 
HETATM   31  C24 RAP A 108       0.435  18.346   9.928  1.00 14.68     0.012 C 
HETATM   32  C25 RAP A 108       1.241  17.081   9.704  1.00 11.87     0.061 C 
HETATM   33  C26 RAP A 108       2.710  17.409   9.474  1.00 11.65     0.180 C 
HETATM   34  C27 RAP A 108       3.620  17.374  10.697  1.00  8.13     0.203 C 
HETATM   35  C28 RAP A 108       4.142  15.942  11.045  1.00 10.80     0.163 C 
HETATM   36  C29 RAP A 108       3.132  15.095  11.842  1.00  9.60    -0.019 C 
HETATM   37  C30 RAP A 108       2.508  14.035  11.328  1.00  8.55    -0.025 C 
HETATM   38  C31 RAP A 108       1.516  13.066  11.989  1.00  8.43     0.079 C 
HETATM   39  C32 RAP A 108       2.229  11.757  12.328  1.00 10.69     0.157 C 
HETATM   40  C33 RAP A 108       3.170  11.808  13.527  1.00  6.51     0.095 C 
HETATM   41  C34 RAP A 108       4.466  11.066  13.274  1.00  9.62     0.132 C 
HETATM   42  C43 RAP A 108       4.292   7.674  18.736  1.00 11.25     0.005 C 
HETATM   43  C44 RAP A 108      -2.428  11.551  14.420  1.00 14.40     0.029 C 
HETATM   44  C45 RAP A 108      -1.522  19.564  10.903  1.00  9.23     0.005 C 
HETATM   45  C46 RAP A 108       0.680  16.250   8.547  1.00 15.99     0.008 C 
HETATM   46  C47 RAP A 108       2.895  15.578  13.261  1.00 14.60     0.029 C 
HETATM   47  C48 RAP A 108       0.365  12.791  11.009  1.00  9.37     0.013 C 
ENDROOT
BRANCH  41  48
HETATM   48  C35 RAP A 108       5.683  11.388  14.163  1.00  9.58     0.028 C 
HETATM   49  C49 RAP A 108       6.876  10.543  13.822  1.00  8.29     0.003 C 
BRANCH  48  50
HETATM   50  C36 RAP A 108       5.355  11.274  15.651  1.00 10.31     0.003 C 
BRANCH  50  51
HETATM   51  C37 RAP A 108       5.294  12.574  16.458  1.00 22.90     0.003 C 
HETATM   52  C38 RAP A 108       6.009  13.698  15.699  1.00 14.17     0.032 C 
HETATM   53  C39 RAP A 108       6.090  15.000  16.498  1.00 34.20     0.142 C 
HETATM   54  C40 RAP A 108       4.661  15.418  16.987  1.00 38.24     0.138 C 
HETATM   55  C41 RAP A 108       3.915  14.286  17.722  1.00 16.32     0.032 C 
HETATM   56  C42 RAP A 108       3.894  13.015  16.884  1.00 14.05     0.003 C 
BRANCH  53  57
HETATM   57  O12 RAP A 108       6.613  15.970  15.627  1.00 30.82    -0.352 OA
HETATM   58  C52 RAP A 108       6.503  15.714  14.269  1.00 28.14     0.174 C 
ENDBRANCH  53  57
BRANCH  54  59
HETATM   59  O13 RAP A 108       4.776  16.542  17.858  1.00 28.84    -0.382 OA
HETATM   60  HO3 RAP A 108       3.928  17.002  17.908  1.00 13.32     0.210 HD
ENDBRANCH  54  59
ENDBRANCH  50  51
ENDBRANCH  48  50
ENDBRANCH  41  48
BRANCH  35  61
HETATM   61  O10 RAP A 108       4.460  15.286   9.811  1.00 12.16    -0.378 OA
HETATM   62  HO1 RAP A 108       3.664  15.111   9.287  1.00 13.32     0.211 HD
ENDBRANCH  35  61
BRANCH  16  63
HETATM   63  O6  RAP A 108       1.356   7.140  18.404  1.00 14.16    -0.358 OA
HETATM   64  HO6 RAP A 108       1.564   6.203  18.455  1.00 13.32     0.213 HD
ENDBRANCH  16  63
BRANCH  34  65
HETATM   65  O9  RAP A 108       4.751  18.163  10.439  1.00 23.09    -0.344 OA
HETATM   66  C51 RAP A 108       4.764  19.406  11.049  1.00 19.04     0.175 C 
ENDBRANCH  34  65
BRANCH  23  67
HETATM   67  O7  RAP A 108      -1.749  11.286  17.221  1.00 20.17    -0.350 OA
HETATM   68  C50 RAP A 108      -2.127  12.191  18.208  1.00 28.36     0.175 C 
ENDBRANCH  23  67
TORSDOF 9
ENDMDL
