MODEL 1
REMARK VINA RESULT:   -10.839      0.000      0.000
REMARK INTER + INTRA:         -17.921
REMARK INTER:                 -15.592
REMARK INTRA:                  -2.329
REMARK UNBOUND:                -2.329
REMARK  9 active torsions:
REMARK  status: ('A' for Active; 'I' for Inactive)
REMARK    1  A    between atoms: O6_12  and  C10_19 
REMARK    2  A    between atoms: O7_14  and  C16_29 
REMARK    3  A    between atoms: O9_18  and  C27_40 
REMARK    4  A    between atoms: O10_20  and  C28_41 
REMARK    5  A    between atoms: O12_24  and  C39_52 
REMARK    6  A    between atoms: O13_26  and  C40_53 
REMARK    7  A    between atoms: C34_47  and  C35_48 
REMARK    8  A    between atoms: C35_48  and  C36_49 
REMARK    9  A    between atoms: C36_49  and  C37_50 
ROOT
HETATM    1  C1  RAP A 108       4.776   8.379  12.950  1.00  5.98     0.292 C 
HETATM    2  O1  RAP A 108       4.443   9.462  13.809  1.00  9.08    -0.302 OA
HETATM    3  C2  RAP A 108       4.288   6.954  13.213  1.00  6.42     0.171 C 
HETATM    4  O2  RAP A 108       5.504   8.607  11.987  1.00 14.08    -0.262 OA
HETATM    5  C3  RAP A 108       3.799   6.296  11.931  1.00  5.50     0.033 C 
HETATM    6  O3  RAP A 108       4.671   6.058  15.708  1.00 10.38    -0.264 OA
HETATM    7  C4  RAP A 108       2.439   6.798  11.467  1.00  4.49     0.004 C 
HETATM    8  O4  RAP A 108       1.890   5.210  16.543  1.00 10.60    -0.281 OA
HETATM    9  C5  RAP A 108       1.455   6.619  12.608  1.00  4.19     0.024 C 
HETATM   10  O5  RAP A 108       1.466   8.336  16.771  1.00 10.76    -0.332 OA
HETATM   11  C6  RAP A 108       1.910   7.360  13.827  1.00  3.25     0.105 C 
HETATM   12  N7  RAP A 108       3.224   6.823  14.215  1.00  8.46    -0.307 N 
HETATM   13  C8  RAP A 108       3.509   6.405  15.457  1.00 10.06     0.297 C 
HETATM   14  O8  RAP A 108       3.932  17.657   8.973  1.00 18.31    -0.293 OA
HETATM   15  C9  RAP A 108       2.529   6.267  16.465  1.00 11.13     0.279 C 
HETATM   16  C10 RAP A 108       2.227   7.386  17.479  1.00 16.59     0.246 C 
HETATM   17  C11 RAP A 108       3.528   8.083  18.052  1.00 10.40     0.059 C 
HETATM   18  O11 RAP A 108       2.450  10.658  11.969  1.00  9.49    -0.296 OA
HETATM   19  C12 RAP A 108       3.178   9.386  18.808  1.00 12.17     0.008 C 
HETATM   20  C13 RAP A 108       2.257  10.259  17.968  1.00 12.80     0.030 C 
HETATM   21  C14 RAP A 108       1.063   9.505  17.391  1.00 10.37     0.121 C 
HETATM   22  C15 RAP A 108       0.421  10.329  16.289  1.00  5.94     0.064 C 
HETATM   23  C16 RAP A 108      -0.318  11.590  16.721  1.00  9.79     0.136 C 
HETATM   24  C17 RAP A 108      -0.877  12.336  15.528  1.00 15.52    -0.017 C 
HETATM   25  C18 RAP A 108      -0.379  13.531  15.239  1.00 14.38    -0.006 C 
HETATM   26  C19 RAP A 108      -0.796  14.361  14.101  1.00  9.73    -0.001 C 
HETATM   27  C20 RAP A 108      -0.258  15.563  13.948  1.00 10.26    -0.000 C 
HETATM   28  C21 RAP A 108      -0.566  16.395  12.770  1.00 11.40    -0.005 C 
HETATM   29  C22 RAP A 108       0.110  17.495  12.500  1.00 17.77    -0.026 C 
HETATM   30  C23 RAP A 108      -0.087  18.328  11.252  1.00 15.64     0.022 C 
HETATM   31  C24 RAP A 108       1.268  18.421  10.572  1.00 14.68     0.012 C 
HETATM   32  C25 RAP A 108       1.997  17.119  10.295  1.00 11.87     0.061 C 
HETATM   33  C26 RAP A 108       3.484  17.367  10.079  1.00 11.65     0.180 C 
HETATM   34  C27 RAP A 108       4.387  17.224  11.301  1.00  8.13     0.203 C 
HETATM   35  C28 RAP A 108       4.819  15.751  11.588  1.00 10.80     0.163 C 
HETATM   36  C29 RAP A 108       3.757  14.933  12.348  1.00  9.60    -0.019 C 
HETATM   37  C30 RAP A 108       3.071  13.937  11.790  1.00  8.55    -0.025 C 
HETATM   38  C31 RAP A 108       2.020  13.002  12.408  1.00  8.43     0.079 C 
HETATM   39  C32 RAP A 108       2.651  11.639  12.692  1.00 10.69     0.157 C 
HETATM   40  C33 RAP A 108       3.589  11.582  13.892  1.00  6.51     0.095 C 
HETATM   41  C34 RAP A 108       4.839  10.774  13.609  1.00  9.62     0.132 C 
HETATM   42  C43 RAP A 108       4.442   7.171  18.923  1.00 11.25     0.005 C 
HETATM   43  C44 RAP A 108      -2.016  11.630  14.771  1.00 14.40     0.029 C 
HETATM   44  C45 RAP A 108      -0.613  19.714  11.597  1.00  9.23     0.005 C 
HETATM   45  C46 RAP A 108       1.389  16.374   9.104  1.00 15.99     0.008 C 
HETATM   46  C47 RAP A 108       3.545  15.370  13.786  1.00 14.60     0.029 C 
HETATM   47  C48 RAP A 108       0.857  12.839  11.417  1.00  9.37     0.013 C 
ENDROOT
BRANCH  41  48
HETATM   48  C35 RAP A 108       6.071  10.983  14.512  1.00  9.58     0.028 C 
HETATM   49  C49 RAP A 108       5.703  11.063  15.965  1.00  8.29     0.003 C 
BRANCH  48  50
HETATM   50  C36 RAP A 108       6.886  12.207  14.098  1.00 10.31     0.003 C 
BRANCH  50  51
HETATM   51  C37 RAP A 108       7.499  12.201  12.696  1.00 22.90     0.003 C 
HETATM   52  C38 RAP A 108       7.796  13.636  12.245  1.00 14.17     0.032 C 
HETATM   53  C39 RAP A 108       8.303  13.716  10.804  1.00 34.20     0.142 C 
HETATM   54  C40 RAP A 108       9.531  12.760  10.614  1.00 38.24     0.138 C 
HETATM   55  C41 RAP A 108       9.260  11.321  11.096  1.00 16.32     0.032 C 
HETATM   56  C42 RAP A 108       8.734  11.316  12.524  1.00 14.05     0.003 C 
BRANCH  53  57
HETATM   57  O12 RAP A 108       8.684  15.051  10.589  1.00 30.82    -0.352 OA
HETATM   58  C52 RAP A 108       9.616  15.583  11.467  1.00 28.14     0.174 C 
ENDBRANCH  53  57
BRANCH  54  59
HETATM   59  O13 RAP A 108       9.890  12.730   9.234  1.00 28.84    -0.382 OA
HETATM   60  HO3 RAP A 108       9.299  13.304   8.731  1.00 13.32     0.210 HD
ENDBRANCH  54  59
ENDBRANCH  50  51
ENDBRANCH  48  50
ENDBRANCH  41  48
BRANCH  35  61
HETATM   61  O10 RAP A 108       5.100  15.129  10.327  1.00 12.16    -0.378 OA
HETATM   62  HO1 RAP A 108       4.896  15.720   9.587  1.00 13.32     0.211 HD
ENDBRANCH  35  61
BRANCH  16  63
HETATM   63  O6  RAP A 108       1.481   6.832  18.567  1.00 14.16    -0.358 OA
HETATM   64  HO6 RAP A 108       1.604   5.878  18.557  1.00 13.32     0.213 HD
ENDBRANCH  16  63
BRANCH  34  65
HETATM   65  O9  RAP A 108       5.564  17.953  11.077  1.00 23.09    -0.344 OA
HETATM   66  C51 RAP A 108       6.545  17.817  12.044  1.00 19.04     0.175 C 
ENDBRANCH  34  65
BRANCH  23  67
HETATM   67  O7  RAP A 108      -1.363  11.205  17.558  1.00 20.17    -0.350 OA
HETATM   68  C50 RAP A 108      -1.574  11.997  18.684  1.00 28.36     0.175 C 
ENDBRANCH  23  67
TORSDOF 9
ENDMDL
MODEL 2
REMARK VINA RESULT:   -10.014      1.508      1.961
REMARK INTER + INTRA:         -16.733
REMARK INTER:                 -14.629
REMARK INTRA:                  -2.104
REMARK UNBOUND:                -2.329
REMARK  9 active torsions:
REMARK  status: ('A' for Active; 'I' for Inactive)
REMARK    1  A    between atoms: O6_12  and  C10_19 
REMARK    2  A    between atoms: O7_14  and  C16_29 
REMARK    3  A    between atoms: O9_18  and  C27_40 
REMARK    4  A    between atoms: O10_20  and  C28_41 
REMARK    5  A    between atoms: O12_24  and  C39_52 
REMARK    6  A    between atoms: O13_26  and  C40_53 
REMARK    7  A    between atoms: C34_47  and  C35_48 
REMARK    8  A    between atoms: C35_48  and  C36_49 
REMARK    9  A    between atoms: C36_49  and  C37_50 
ROOT
HETATM    1  C1  RAP A 108       4.758   8.365  12.881  1.00  5.98     0.292 C 
HETATM    2  O1  RAP A 108       4.441   9.447  13.747  1.00  9.08    -0.302 OA
HETATM    3  C2  RAP A 108       4.267   6.942  13.147  1.00  6.42     0.171 C 
HETATM    4  O2  RAP A 108       5.474   8.592  11.908  1.00 14.08    -0.262 OA
HETATM    5  C3  RAP A 108       3.759   6.289  11.870  1.00  5.50     0.033 C 
HETATM    6  O3  RAP A 108       4.680   6.038  15.635  1.00 10.38    -0.264 OA
HETATM    7  C4  RAP A 108       2.395   6.798  11.426  1.00  4.49     0.004 C 
HETATM    8  O4  RAP A 108       1.907   5.200  16.505  1.00 10.60    -0.281 OA
HETATM    9  C5  RAP A 108       1.425   6.620  12.580  1.00  4.19     0.024 C 
HETATM   10  O5  RAP A 108       1.500   8.327  16.746  1.00 10.76    -0.332 OA
HETATM   11  C6  RAP A 108       1.900   7.357  13.794  1.00  3.25     0.105 C 
HETATM   12  N7  RAP A 108       3.217   6.813  14.163  1.00  8.46    -0.307 N 
HETATM   13  C8  RAP A 108       3.517   6.390  15.401  1.00 10.06     0.297 C 
HETATM   14  O8  RAP A 108       3.900  17.656   8.937  1.00 18.31    -0.293 OA
HETATM   15  C9  RAP A 108       2.550   6.254  16.421  1.00 11.13     0.279 C 
HETATM   16  C10 RAP A 108       2.266   7.372  17.442  1.00 16.59     0.246 C 
HETATM   17  C11 RAP A 108       3.578   8.063  17.998  1.00 10.40     0.059 C 
HETATM   18  O11 RAP A 108       2.429  10.656  11.937  1.00  9.49    -0.296 OA
HETATM   19  C12 RAP A 108       3.244   9.364  18.763  1.00 12.17     0.008 C 
HETATM   20  C13 RAP A 108       2.315  10.243  17.937  1.00 12.80     0.030 C 
HETATM   21  C14 RAP A 108       1.111   9.496  17.374  1.00 10.37     0.121 C 
HETATM   22  C15 RAP A 108       0.457  10.326  16.284  1.00  5.94     0.064 C 
HETATM   23  C16 RAP A 108      -0.271  11.589  16.728  1.00  9.79     0.136 C 
HETATM   24  C17 RAP A 108      -0.843  12.340  15.545  1.00 15.52    -0.017 C 
HETATM   25  C18 RAP A 108      -0.343  13.533  15.252  1.00 14.38    -0.006 C 
HETATM   26  C19 RAP A 108      -0.772  14.368  14.121  1.00  9.73    -0.001 C 
HETATM   27  C20 RAP A 108      -0.231  15.568  13.964  1.00 10.26    -0.000 C 
HETATM   28  C21 RAP A 108      -0.552  16.404  12.792  1.00 11.40    -0.005 C 
HETATM   29  C22 RAP A 108       0.126  17.502  12.515  1.00 17.77    -0.026 C 
HETATM   30  C23 RAP A 108      -0.085  18.339  11.272  1.00 15.64     0.022 C 
HETATM   31  C24 RAP A 108       1.262  18.428  10.575  1.00 14.68     0.012 C 
HETATM   32  C25 RAP A 108       1.981  17.123  10.285  1.00 11.87     0.061 C 
HETATM   33  C26 RAP A 108       3.466  17.365  10.049  1.00 11.65     0.180 C 
HETATM   34  C27 RAP A 108       4.384  17.216  11.258  1.00  8.13     0.203 C 
HETATM   35  C28 RAP A 108       4.814  15.740  11.536  1.00 10.80     0.163 C 
HETATM   36  C29 RAP A 108       3.759  14.925  12.308  1.00  9.60    -0.019 C 
HETATM   37  C30 RAP A 108       3.061  13.933  11.757  1.00  8.55    -0.025 C 
HETATM   38  C31 RAP A 108       2.015  13.001  12.387  1.00  8.43     0.079 C 
HETATM   39  C32 RAP A 108       2.644  11.635  12.659  1.00 10.69     0.157 C 
HETATM   40  C33 RAP A 108       3.598  11.571  13.846  1.00  6.51     0.095 C 
HETATM   41  C34 RAP A 108       4.840  10.758  13.545  1.00  9.62     0.132 C 
HETATM   42  C43 RAP A 108       4.500   7.145  18.855  1.00 11.25     0.005 C 
HETATM   43  C44 RAP A 108      -1.995  11.640  14.802  1.00 14.40     0.029 C 
HETATM   44  C45 RAP A 108      -0.600  19.726  11.627  1.00  9.23     0.005 C 
HETATM   45  C46 RAP A 108       1.354  16.383   9.100  1.00 15.99     0.008 C 
HETATM   46  C47 RAP A 108       3.569  15.359  13.749  1.00 14.60     0.029 C 
HETATM   47  C48 RAP A 108       0.838  12.846  11.412  1.00  9.37     0.013 C 
ENDROOT
BRANCH  41  48
HETATM   48  C35 RAP A 108       6.085  10.960  14.431  1.00  9.58     0.028 C 
HETATM   49  C49 RAP A 108       5.727  11.385  15.826  1.00  8.29     0.003 C 
BRANCH  48  50
HETATM   50  C36 RAP A 108       7.079  11.941  13.812  1.00 10.31     0.003 C 
BRANCH  50  51
HETATM   51  C37 RAP A 108       7.529  13.123  14.675  1.00 22.90     0.003 C 
HETATM   52  C38 RAP A 108       8.991  12.939  15.096  1.00 14.17     0.032 C 
HETATM   53  C39 RAP A 108       9.476  14.025  16.059  1.00 34.20     0.142 C 
HETATM   54  C40 RAP A 108       9.198  15.443  15.450  1.00 38.24     0.138 C 
HETATM   55  C41 RAP A 108       7.739  15.631  14.989  1.00 16.32     0.032 C 
HETATM   56  C42 RAP A 108       7.314  14.504  14.057  1.00 14.05     0.003 C 
BRANCH  53  57
HETATM   57  O12 RAP A 108      10.857  13.825  16.223  1.00 30.82    -0.352 OA
HETATM   58  C52 RAP A 108      11.602  13.638  15.069  1.00 28.14     0.174 C 
ENDBRANCH  53  57
BRANCH  54  59
HETATM   59  O13 RAP A 108       9.511  16.438  16.423  1.00 28.84    -0.382 OA
HETATM   60  HO3 RAP A 108       9.867  17.221  15.985  1.00 13.32     0.210 HD
ENDBRANCH  54  59
ENDBRANCH  50  51
ENDBRANCH  48  50
ENDBRANCH  41  48
BRANCH  35  61
HETATM   61  O10 RAP A 108       5.076  15.120  10.270  1.00 12.16    -0.378 OA
HETATM   62  HO1 RAP A 108       6.003  14.854  10.189  1.00 13.32     0.211 HD
ENDBRANCH  35  61
BRANCH  16  63
HETATM   63  O6  RAP A 108       1.533   6.818  18.538  1.00 14.16    -0.358 OA
HETATM   64  HO6 RAP A 108       1.717   5.875  18.575  1.00 13.32     0.213 HD
ENDBRANCH  16  63
BRANCH  34  65
HETATM   65  O9  RAP A 108       5.562  17.940  11.020  1.00 23.09    -0.344 OA
HETATM   66  C51 RAP A 108       6.527  17.855  12.009  1.00 19.04     0.175 C 
ENDBRANCH  34  65
BRANCH  23  67
HETATM   67  O7  RAP A 108      -1.306  11.206  17.579  1.00 20.17    -0.350 OA
HETATM   68  C50 RAP A 108      -1.481  11.981  18.721  1.00 28.36     0.175 C 
ENDBRANCH  23  67
TORSDOF 9
ENDMDL
