MODEL 1
REMARK VINA RESULT:   -10.880      0.000      0.000
REMARK INTER + INTRA:         -17.945
REMARK INTER:                 -15.651
REMARK INTRA:                  -2.295
REMARK UNBOUND:                -2.295
REMARK  9 active torsions:
REMARK  status: ('A' for Active; 'I' for Inactive)
REMARK    1  A    between atoms: O6_12  and  C10_19 
REMARK    2  A    between atoms: O7_14  and  C16_29 
REMARK    3  A    between atoms: O9_18  and  C27_40 
REMARK    4  A    between atoms: O10_20  and  C28_41 
REMARK    5  A    between atoms: O12_24  and  C39_52 
REMARK    6  A    between atoms: O13_26  and  C40_53 
REMARK    7  A    between atoms: C34_47  and  C35_48 
REMARK    8  A    between atoms: C35_48  and  C36_49 
REMARK    9  A    between atoms: C36_49  and  C37_50 
ROOT
HETATM    1  C1  RAP A 108       4.777   8.399  12.908  1.00  5.98     0.292 C 
HETATM    2  O1  RAP A 108       4.436   9.475  13.773  1.00  9.08    -0.302 OA
HETATM    3  C2  RAP A 108       4.295   6.971  13.159  1.00  6.42     0.171 C 
HETATM    4  O2  RAP A 108       5.507   8.638  11.949  1.00 14.08    -0.262 OA
HETATM    5  C3  RAP A 108       3.814   6.319  11.871  1.00  5.50     0.033 C 
HETATM    6  O3  RAP A 108       4.674   6.059  15.650  1.00 10.38    -0.264 OA
HETATM    7  C4  RAP A 108       2.453   6.817  11.406  1.00  4.49     0.004 C 
HETATM    8  O4  RAP A 108       1.895   5.192  16.469  1.00 10.60    -0.281 OA
HETATM    9  C5  RAP A 108       1.466   6.626  12.543  1.00  4.19     0.024 C 
HETATM   10  O5  RAP A 108       1.454   8.314  16.717  1.00 10.76    -0.332 OA
HETATM   11  C6  RAP A 108       1.913   7.361  13.768  1.00  3.25     0.105 C 
HETATM   12  N7  RAP A 108       3.229   6.827  14.157  1.00  8.46    -0.307 N 
HETATM   13  C8  RAP A 108       3.511   6.402  15.398  1.00 10.06     0.297 C 
HETATM   14  O8  RAP A 108       3.900  17.701   8.992  1.00 18.31    -0.293 OA
HETATM   15  C9  RAP A 108       2.529   6.252  16.401  1.00 11.13     0.279 C 
HETATM   16  C10 RAP A 108       2.218   7.362  17.422  1.00 16.59     0.246 C 
HETATM   17  C11 RAP A 108       3.513   8.063  18.003  1.00 10.40     0.059 C 
HETATM   18  O11 RAP A 108       2.443  10.674  11.935  1.00  9.49    -0.296 OA
HETATM   19  C12 RAP A 108       3.154   9.358  18.768  1.00 12.17     0.008 C 
HETATM   20  C13 RAP A 108       2.232  10.232  17.930  1.00 12.80     0.030 C 
HETATM   21  C14 RAP A 108       1.044   9.476  17.344  1.00 10.37     0.121 C 
HETATM   22  C15 RAP A 108       0.401  10.305  16.246  1.00  5.94     0.064 C 
HETATM   23  C16 RAP A 108      -0.346  11.559  16.683  1.00  9.79     0.136 C 
HETATM   24  C17 RAP A 108      -0.905  12.311  15.494  1.00 15.52    -0.017 C 
HETATM   25  C18 RAP A 108      -0.411  13.510  15.215  1.00 14.38    -0.006 C 
HETATM   26  C19 RAP A 108      -0.829  14.346  14.081  1.00  9.73    -0.001 C 
HETATM   27  C20 RAP A 108      -0.296  15.551  13.938  1.00 10.26    -0.000 C 
HETATM   28  C21 RAP A 108      -0.605  16.390  12.765  1.00 11.40    -0.005 C 
HETATM   29  C22 RAP A 108       0.067  17.496  12.505  1.00 17.77    -0.026 C 
HETATM   30  C23 RAP A 108      -0.130  18.336  11.262  1.00 15.64     0.022 C 
HETATM   31  C24 RAP A 108       1.227  18.440  10.588  1.00 14.68     0.012 C 
HETATM   32  C25 RAP A 108       1.963  17.144  10.304  1.00 11.87     0.061 C 
HETATM   33  C26 RAP A 108       3.450  17.401  10.095  1.00 11.65     0.180 C 
HETATM   34  C27 RAP A 108       4.349  17.254  11.319  1.00  8.13     0.203 C 
HETATM   35  C28 RAP A 108       4.788  15.781  11.597  1.00 10.80     0.163 C 
HETATM   36  C29 RAP A 108       3.727  14.953  12.348  1.00  9.60    -0.019 C 
HETATM   37  C30 RAP A 108       3.048  13.957  11.780  1.00  8.55    -0.025 C 
HETATM   38  C31 RAP A 108       2.000  13.013  12.388  1.00  8.43     0.079 C 
HETATM   39  C32 RAP A 108       2.637  11.651  12.665  1.00 10.69     0.157 C 
HETATM   40  C33 RAP A 108       3.571  11.590  13.868  1.00  6.51     0.095 C 
HETATM   41  C34 RAP A 108       4.825  10.790  13.584  1.00  9.62     0.132 C 
HETATM   42  C43 RAP A 108       4.429   7.149  18.871  1.00 11.25     0.005 C 
HETATM   43  C44 RAP A 108      -2.038  11.604  14.729  1.00 14.40     0.029 C 
HETATM   44  C45 RAP A 108      -0.665  19.716  11.615  1.00  9.23     0.005 C 
HETATM   45  C46 RAP A 108       1.363  16.404   9.106  1.00 15.99     0.008 C 
HETATM   46  C47 RAP A 108       3.508  15.378  13.788  1.00 14.60     0.029 C 
HETATM   47  C48 RAP A 108       0.841  12.851  11.393  1.00  9.37     0.013 C 
ENDROOT
BRANCH  41  48
HETATM   48  C35 RAP A 108       6.053  11.000  14.492  1.00  9.58     0.028 C 
HETATM   49  C49 RAP A 108       5.676  11.113  15.941  1.00  8.29     0.003 C 
BRANCH  48  50
HETATM   50  C36 RAP A 108       6.889  12.204  14.061  1.00 10.31     0.003 C 
BRANCH  50  51
HETATM   51  C37 RAP A 108       7.507  12.164  12.662  1.00 22.90     0.003 C 
HETATM   52  C38 RAP A 108       7.785  13.589  12.169  1.00 14.17     0.032 C 
HETATM   53  C39 RAP A 108       8.297  13.634  10.728  1.00 34.20     0.142 C 
HETATM   54  C40 RAP A 108       9.537  12.689  10.570  1.00 38.24     0.138 C 
HETATM   55  C41 RAP A 108       9.284  11.261  11.094  1.00 16.32     0.032 C 
HETATM   56  C42 RAP A 108       8.754  11.291  12.520  1.00 14.05     0.003 C 
BRANCH  53  57
HETATM   57  O12 RAP A 108       8.660  14.967  10.475  1.00 30.82    -0.352 OA
HETATM   58  C52 RAP A 108       9.462  15.585  11.421  1.00 28.14     0.174 C 
ENDBRANCH  53  57
BRANCH  54  59
HETATM   59  O13 RAP A 108       9.902  12.623   9.192  1.00 28.84    -0.382 OA
HETATM   60  HO3 RAP A 108       9.339  11.984   8.738  1.00 13.32     0.210 HD
ENDBRANCH  54  59
ENDBRANCH  50  51
ENDBRANCH  48  50
ENDBRANCH  41  48
BRANCH  35  61
HETATM   61  O10 RAP A 108       5.076  15.169  10.333  1.00 12.16    -0.378 OA
HETATM   62  HO1 RAP A 108       5.927  14.707  10.348  1.00 13.32     0.211 HD
ENDBRANCH  35  61
BRANCH  16  63
HETATM   63  O6  RAP A 108       1.471   6.797  18.503  1.00 14.16    -0.358 OA
HETATM   64  HO6 RAP A 108       1.497   7.416  19.239  1.00 13.32     0.213 HD
ENDBRANCH  16  63
BRANCH  34  65
HETATM   65  O9  RAP A 108       5.523  17.990  11.104  1.00 23.09    -0.344 OA
HETATM   66  C51 RAP A 108       6.489  17.877  12.089  1.00 19.04     0.175 C 
ENDBRANCH  34  65
BRANCH  23  67
HETATM   67  O7  RAP A 108      -1.392  11.163  17.515  1.00 20.17    -0.350 OA
HETATM   68  C50 RAP A 108      -1.583  11.920  18.667  1.00 28.36     0.175 C 
ENDBRANCH  23  67
TORSDOF 9
ENDMDL
MODEL 2
REMARK VINA RESULT:    -8.781      1.678      2.748
REMARK INTER + INTRA:         -14.926
REMARK INTER:                 -12.854
REMARK INTRA:                  -2.072
REMARK UNBOUND:                -2.295
REMARK  9 active torsions:
REMARK  status: ('A' for Active; 'I' for Inactive)
REMARK    1  A    between atoms: O6_12  and  C10_19 
REMARK    2  A    between atoms: O7_14  and  C16_29 
REMARK    3  A    between atoms: O9_18  and  C27_40 
REMARK    4  A    between atoms: O10_20  and  C28_41 
REMARK    5  A    between atoms: O12_24  and  C39_52 
REMARK    6  A    between atoms: O13_26  and  C40_53 
REMARK    7  A    between atoms: C34_47  and  C35_48 
REMARK    8  A    between atoms: C35_48  and  C36_49 
REMARK    9  A    between atoms: C36_49  and  C37_50 
ROOT
HETATM    1  C1  RAP A 108       4.568   8.637  12.726  1.00  5.98     0.292 C 
HETATM    2  O1  RAP A 108       4.164   9.730  13.540  1.00  9.08    -0.302 OA
HETATM    3  C2  RAP A 108       4.164   7.197  13.042  1.00  6.42     0.171 C 
HETATM    4  O2  RAP A 108       5.290   8.871  11.759  1.00 14.08    -0.262 OA
HETATM    5  C3  RAP A 108       3.727   6.462  11.783  1.00  5.50     0.033 C 
HETATM    6  O3  RAP A 108       4.578   6.423  15.573  1.00 10.38    -0.264 OA
HETATM    7  C4  RAP A 108       2.343   6.863  11.291  1.00  4.49     0.004 C 
HETATM    8  O4  RAP A 108       1.846   5.443  16.422  1.00 10.60    -0.281 OA
HETATM    9  C5  RAP A 108       1.361   6.669  12.433  1.00  4.19     0.024 C 
HETATM   10  O5  RAP A 108       1.234   8.544  16.525  1.00 10.76    -0.332 OA
HETATM   11  C6  RAP A 108       1.761   7.483  13.625  1.00  3.25     0.105 C 
HETATM   12  N7  RAP A 108       3.102   7.041  14.041  1.00  8.46    -0.307 N 
HETATM   13  C8  RAP A 108       3.400   6.689  15.301  1.00 10.06     0.297 C 
HETATM   14  O8  RAP A 108       3.207  17.687   8.384  1.00 18.31    -0.293 OA
HETATM   15  C9  RAP A 108       2.421   6.532  16.308  1.00 11.13     0.279 C 
HETATM   16  C10 RAP A 108       2.045   7.669  17.275  1.00 16.59     0.246 C 
HETATM   17  C11 RAP A 108       3.297   8.465  17.828  1.00 10.40     0.059 C 
HETATM   18  O11 RAP A 108       2.119  10.733  11.642  1.00  9.49    -0.296 OA
HETATM   19  C12 RAP A 108       2.864   9.772  18.531  1.00 12.17     0.008 C 
HETATM   20  C13 RAP A 108       1.899  10.556  17.651  1.00 12.80     0.030 C 
HETATM   21  C14 RAP A 108       0.757   9.710  17.097  1.00 10.37     0.121 C 
HETATM   22  C15 RAP A 108       0.077  10.451  15.959  1.00  5.94     0.064 C 
HETATM   23  C16 RAP A 108      -0.740  11.681  16.336  1.00  9.79     0.136 C 
HETATM   24  C17 RAP A 108      -1.332  12.345  15.112  1.00 15.52    -0.017 C 
HETATM   25  C18 RAP A 108      -0.903  13.556  14.780  1.00 14.38    -0.006 C 
HETATM   26  C19 RAP A 108      -1.360  14.315  13.607  1.00  9.73    -0.001 C 
HETATM   27  C20 RAP A 108      -0.893  15.540  13.410  1.00 10.26    -0.000 C 
HETATM   28  C21 RAP A 108      -1.240  16.305  12.199  1.00 11.40    -0.005 C 
HETATM   29  C22 RAP A 108      -0.628  17.433  11.890  1.00 17.77    -0.026 C 
HETATM   30  C23 RAP A 108      -0.864  18.204  10.609  1.00 15.64     0.022 C 
HETATM   31  C24 RAP A 108       0.489  18.351   9.935  1.00 14.68     0.012 C 
HETATM   32  C25 RAP A 108       1.297  17.086   9.714  1.00 11.87     0.061 C 
HETATM   33  C26 RAP A 108       2.768  17.414   9.498  1.00 11.65     0.180 C 
HETATM   34  C27 RAP A 108       3.667  17.373  10.729  1.00  8.13     0.203 C 
HETATM   35  C28 RAP A 108       4.184  15.940  11.077  1.00 10.80     0.163 C 
HETATM   36  C29 RAP A 108       3.166  15.090  11.862  1.00  9.60    -0.019 C 
HETATM   37  C30 RAP A 108       2.545  14.033  11.338  1.00  8.55    -0.025 C 
HETATM   38  C31 RAP A 108       1.547  13.063  11.986  1.00  8.43     0.079 C 
HETATM   39  C32 RAP A 108       2.256  11.752  12.327  1.00 10.69     0.157 C 
HETATM   40  C33 RAP A 108       3.185  11.797  13.535  1.00  6.51     0.095 C 
HETATM   41  C34 RAP A 108       4.483  11.055  13.291  1.00  9.62     0.132 C 
HETATM   42  C43 RAP A 108       4.256   7.644  18.739  1.00 11.25     0.005 C 
HETATM   43  C44 RAP A 108      -2.421  11.543  14.376  1.00 14.40     0.029 C 
HETATM   44  C45 RAP A 108      -1.475  19.568  10.896  1.00  9.23     0.005 C 
HETATM   45  C46 RAP A 108       0.745  16.260   8.549  1.00 15.99     0.008 C 
HETATM   46  C47 RAP A 108       2.916  15.568  13.280  1.00 14.60     0.029 C 
HETATM   47  C48 RAP A 108       0.404  12.792  10.995  1.00  9.37     0.013 C 
ENDROOT
BRANCH  41  48
HETATM   48  C35 RAP A 108       5.692  11.373  14.193  1.00  9.58     0.028 C 
HETATM   49  C49 RAP A 108       6.901  10.558  13.831  1.00  8.29     0.003 C 
BRANCH  48  50
HETATM   50  C36 RAP A 108       5.363  11.211  15.676  1.00 10.31     0.003 C 
BRANCH  50  51
HETATM   51  C37 RAP A 108       5.282  12.486  16.520  1.00 22.90     0.003 C 
HETATM   52  C38 RAP A 108       6.058  13.618  15.837  1.00 14.17     0.032 C 
HETATM   53  C39 RAP A 108       6.120  14.893  16.681  1.00 34.20     0.142 C 
HETATM   54  C40 RAP A 108       4.674  15.325  17.106  1.00 38.24     0.138 C 
HETATM   55  C41 RAP A 108       3.867  14.186  17.761  1.00 16.32     0.032 C 
HETATM   56  C42 RAP A 108       3.869  12.943  16.883  1.00 14.05     0.003 C 
BRANCH  53  57
HETATM   57  O12 RAP A 108       6.708  15.879  15.872  1.00 30.82    -0.352 OA
HETATM   58  C52 RAP A 108       8.018  16.226  16.163  1.00 28.14     0.174 C 
ENDBRANCH  53  57
BRANCH  54  59
HETATM   59  O13 RAP A 108       4.761  16.418  18.017  1.00 28.84    -0.382 OA
HETATM   60  HO3 RAP A 108       4.448  17.225  17.588  1.00 13.32     0.210 HD
ENDBRANCH  54  59
ENDBRANCH  50  51
ENDBRANCH  48  50
ENDBRANCH  41  48
BRANCH  35  61
HETATM   61  O10 RAP A 108       4.512  15.288   9.843  1.00 12.16    -0.378 OA
HETATM   62  HO1 RAP A 108       3.738  15.209   9.266  1.00 13.32     0.211 HD
ENDBRANCH  35  61
BRANCH  16  63
HETATM   63  O6  RAP A 108       1.324   7.114  18.379  1.00 14.16    -0.358 OA
HETATM   64  HO6 RAP A 108       0.548   7.661  18.534  1.00 13.32     0.213 HD
ENDBRANCH  16  63
BRANCH  34  65
HETATM   65  O9  RAP A 108       4.801  18.162  10.484  1.00 23.09    -0.344 OA
HETATM   66  C51 RAP A 108       5.734  18.201  11.506  1.00 19.04     0.175 C 
ENDBRANCH  34  65
BRANCH  23  67
HETATM   67  O7  RAP A 108      -1.767  11.267  17.182  1.00 20.17    -0.350 OA
HETATM   68  C50 RAP A 108      -1.994  12.055  18.306  1.00 28.36     0.175 C 
ENDBRANCH  23  67
TORSDOF 9
ENDMDL
