MODEL 1
REMARK VINA RESULT:    -8.043      0.000      0.000
REMARK INTER + INTRA:         -13.059
REMARK INTER:                 -11.569
REMARK INTRA:                  -1.490
REMARK UNBOUND:                -1.490
REMARK  9 active torsions:
REMARK  status: ('A' for Active; 'I' for Inactive)
REMARK    1  A    between atoms: O6_12  and  C10_19 
REMARK    2  A    between atoms: O7_14  and  C16_29 
REMARK    3  A    between atoms: O9_18  and  C27_40 
REMARK    4  A    between atoms: O10_20  and  C28_41 
REMARK    5  A    between atoms: O12_24  and  C39_52 
REMARK    6  A    between atoms: O13_26  and  C40_53 
REMARK    7  A    between atoms: C34_47  and  C35_48 
REMARK    8  A    between atoms: C35_48  and  C36_49 
REMARK    9  A    between atoms: C36_49  and  C37_50 
ROOT
HETATM    1  C1  RAP A 108       0.989   8.571  18.138  1.00  5.98     0.292 C 
HETATM    2  O1  RAP A 108       1.057   9.512  17.075  1.00  9.08    -0.302 OA
HETATM    3  C2  RAP A 108       1.837   7.299  18.153  1.00  6.42     0.171 C 
HETATM    4  O2  RAP A 108       0.196   8.787  19.052  1.00 14.08    -0.262 OA
HETATM    5  C3  RAP A 108       2.439   7.057  19.529  1.00  5.50     0.033 C 
HETATM    6  O3  RAP A 108       1.778   5.862  15.893  1.00 10.38    -0.264 OA
HETATM    7  C4  RAP A 108       3.607   7.976  19.856  1.00  4.49     0.004 C 
HETATM    8  O4  RAP A 108       4.708   5.619  15.184  1.00 10.60    -0.281 OA
HETATM    9  C5  RAP A 108       4.640   7.838  18.752  1.00  4.19     0.024 C 
HETATM   10  O5  RAP A 108       4.316   8.639  14.332  1.00 10.76    -0.332 OA
HETATM   11  C6  RAP A 108       4.047   8.181  17.420  1.00  3.25     0.105 C 
HETATM   12  N7  RAP A 108       2.929   7.255  17.174  1.00  8.46    -0.307 N 
HETATM   13  C8  RAP A 108       2.802   6.541  16.045  1.00 10.06     0.297 C 
HETATM   14  O8  RAP A 108      -0.726  18.344  20.179  1.00 18.31    -0.293 OA
HETATM   15  C9  RAP A 108       3.815   6.467  15.064  1.00 11.13     0.279 C 
HETATM   16  C10 RAP A 108       3.849   7.404  13.843  1.00 16.59     0.246 C 
HETATM   17  C11 RAP A 108       2.431   7.612  13.171  1.00 10.40     0.059 C 
HETATM   18  O11 RAP A 108       2.613  11.524  18.599  1.00  9.49    -0.296 OA
HETATM   19  C12 RAP A 108       2.455   8.785  12.164  1.00 12.17     0.008 C 
HETATM   20  C13 RAP A 108       3.091  10.016  12.795  1.00 12.80     0.030 C 
HETATM   21  C14 RAP A 108       4.421   9.727  13.485  1.00 10.37     0.121 C 
HETATM   22  C15 RAP A 108       4.793  10.890  14.387  1.00  5.94     0.064 C 
HETATM   23  C16 RAP A 108       5.193  12.189  13.699  1.00  9.79     0.136 C 
HETATM   24  C17 RAP A 108       5.502  13.275  14.708  1.00 15.52    -0.017 C 
HETATM   25  C18 RAP A 108       4.702  14.331  14.765  1.00 14.38    -0.006 C 
HETATM   26  C19 RAP A 108       4.854  15.449  15.707  1.00  9.73    -0.001 C 
HETATM   27  C20 RAP A 108       4.018  16.475  15.630  1.00 10.26    -0.000 C 
HETATM   28  C21 RAP A 108       4.064  17.573  16.613  1.00 11.40    -0.005 C 
HETATM   29  C22 RAP A 108       3.117  18.491  16.674  1.00 17.77    -0.026 C 
HETATM   30  C23 RAP A 108       3.052  19.575  17.728  1.00 15.64     0.022 C 
HETATM   31  C24 RAP A 108       1.698  19.444  18.404  1.00 14.68     0.012 C 
HETATM   32  C25 RAP A 108       1.323  18.078  18.949  1.00 11.87     0.061 C 
HETATM   33  C26 RAP A 108      -0.183  17.968  19.143  1.00 11.65     0.180 C 
HETATM   34  C27 RAP A 108      -0.979  17.358  17.993  1.00  8.13     0.203 C 
HETATM   35  C28 RAP A 108      -1.006  15.796  18.013  1.00 10.80     0.163 C 
HETATM   36  C29 RAP A 108       0.256  15.150  17.407  1.00  9.60    -0.019 C 
HETATM   37  C30 RAP A 108       1.158  14.496  18.138  1.00  8.55    -0.025 C 
HETATM   38  C31 RAP A 108       2.434  13.765  17.695  1.00  8.43     0.079 C 
HETATM   39  C32 RAP A 108       2.187  12.256  17.700  1.00 10.69     0.157 C 
HETATM   40  C33 RAP A 108       1.334  11.722  16.555  1.00  6.51     0.095 C 
HETATM   41  C34 RAP A 108       0.328  10.689  17.019  1.00  9.62     0.132 C 
HETATM   42  C43 RAP A 108       1.812   6.341  12.518  1.00 11.25     0.005 C 
HETATM   43  C44 RAP A 108       6.761  13.052  15.565  1.00 14.40     0.029 C 
HETATM   44  C45 RAP A 108       3.212  20.954  17.104  1.00  9.23     0.005 C 
HETATM   45  C46 RAP A 108       2.065  17.766  20.251  1.00 15.99     0.008 C 
HETATM   46  C47 RAP A 108       0.392  15.335  15.908  1.00 14.60     0.029 C 
HETATM   47  C48 RAP A 108       3.568  14.108  18.673  1.00  9.37     0.013 C 
ENDROOT
BRANCH  41  48
HETATM   48  C35 RAP A 108      -0.887  10.389  16.119  1.00  9.58     0.028 C 
HETATM   49  C49 RAP A 108      -0.532   9.500  14.962  1.00  8.29     0.003 C 
BRANCH  48  50
HETATM   50  C36 RAP A 108      -1.565  11.665  15.624  1.00 10.31     0.003 C 
BRANCH  50  51
HETATM   51  C37 RAP A 108      -2.480  11.546  14.403  1.00 22.90     0.003 C 
HETATM   52  C38 RAP A 108      -3.733  10.738  14.761  1.00 14.17     0.032 C 
HETATM   53  C39 RAP A 108      -4.639  10.477  13.557  1.00 34.20     0.142 C 
HETATM   54  C40 RAP A 108      -4.979  11.829  12.839  1.00 38.24     0.138 C 
HETATM   55  C41 RAP A 108      -3.730  12.669  12.504  1.00 16.32     0.032 C 
HETATM   56  C42 RAP A 108      -2.861  12.868  13.737  1.00 14.05     0.003 C 
BRANCH  53  57
HETATM   57  O12 RAP A 108      -5.809   9.882  14.059  1.00 30.82    -0.352 OA
HETATM   58  C52 RAP A 108      -6.175   8.664  13.509  1.00 28.14     0.174 C 
ENDBRANCH  53  57
BRANCH  54  59
HETATM   59  O13 RAP A 108      -5.691  11.552  11.635  1.00 28.84    -0.382 OA
HETATM   60  HO3 RAP A 108      -6.249  10.774  11.759  1.00 13.32     0.210 HD
ENDBRANCH  54  59
ENDBRANCH  50  51
ENDBRANCH  48  50
ENDBRANCH  41  48
BRANCH  35  61
HETATM   61  O10 RAP A 108      -1.156  15.384  19.378  1.00 12.16    -0.378 OA
HETATM   62  HO1 RAP A 108      -0.430  14.806  19.656  1.00 13.32     0.211 HD
ENDBRANCH  35  61
BRANCH  16  63
HETATM   63  O6  RAP A 108       4.747   6.860  12.871  1.00 14.16    -0.358 OA
HETATM   64  HO6 RAP A 108       5.524   6.532  13.333  1.00 13.32     0.213 HD
ENDBRANCH  16  63
BRANCH  34  65
HETATM   65  O9  RAP A 108      -2.311  17.785  18.093  1.00 23.09    -0.344 OA
HETATM   66  C51 RAP A 108      -3.142  17.402  17.054  1.00 19.04     0.175 C 
ENDBRANCH  34  65
BRANCH  23  67
HETATM   67  O7  RAP A 108       6.328  11.932  12.932  1.00 20.17    -0.350 OA
HETATM   68  C50 RAP A 108       6.789  12.983  12.144  1.00 28.36     0.175 C 
ENDBRANCH  23  67
TORSDOF 9
ENDMDL
MODEL 2
REMARK VINA RESULT:    -7.753      1.954      2.329
REMARK INTER + INTRA:         -12.643
REMARK INTER:                 -10.548
REMARK INTRA:                  -2.094
REMARK UNBOUND:                -1.490
REMARK  9 active torsions:
REMARK  status: ('A' for Active; 'I' for Inactive)
REMARK    1  A    between atoms: O6_12  and  C10_19 
REMARK    2  A    between atoms: O7_14  and  C16_29 
REMARK    3  A    between atoms: O9_18  and  C27_40 
REMARK    4  A    between atoms: O10_20  and  C28_41 
REMARK    5  A    between atoms: O12_24  and  C39_52 
REMARK    6  A    between atoms: O13_26  and  C40_53 
REMARK    7  A    between atoms: C34_47  and  C35_48 
REMARK    8  A    between atoms: C35_48  and  C36_49 
REMARK    9  A    between atoms: C36_49  and  C37_50 
ROOT
HETATM    1  C1  RAP A 108       1.184   8.620  18.034  1.00  5.98     0.292 C 
HETATM    2  O1  RAP A 108       1.232   9.669  17.076  1.00  9.08    -0.302 OA
HETATM    3  C2  RAP A 108       2.009   7.343  17.881  1.00  6.42     0.171 C 
HETATM    4  O2  RAP A 108       0.427   8.747  18.993  1.00 14.08    -0.262 OA
HETATM    5  C3  RAP A 108       2.653   6.945  19.201  1.00  5.50     0.033 C 
HETATM    6  O3  RAP A 108       1.848   6.158  15.484  1.00 10.38    -0.264 OA
HETATM    7  C4  RAP A 108       3.848   7.807  19.582  1.00  4.49     0.004 C 
HETATM    8  O4  RAP A 108       4.747   5.952  14.649  1.00 10.60    -0.281 OA
HETATM    9  C5  RAP A 108       4.840   7.775  18.434  1.00  4.19     0.024 C 
HETATM   10  O5  RAP A 108       4.379   9.052  14.140  1.00 10.76    -0.332 OA
HETATM   11  C6  RAP A 108       4.208   8.267  17.168  1.00  3.25     0.105 C 
HETATM   12  N7  RAP A 108       3.066   7.388  16.865  1.00  8.46    -0.307 N 
HETATM   13  C8  RAP A 108       2.888   6.802  15.672  1.00 10.06     0.297 C 
HETATM   14  O8  RAP A 108      -0.288  18.139  21.170  1.00 18.31    -0.293 OA
HETATM   15  C9  RAP A 108       3.866   6.821  14.653  1.00 11.13     0.279 C 
HETATM   16  C10 RAP A 108       3.875   7.882  13.538  1.00 16.59     0.246 C 
HETATM   17  C11 RAP A 108       2.438   8.182  12.944  1.00 10.40     0.059 C 
HETATM   18  O11 RAP A 108       2.874  11.483  18.749  1.00  9.49    -0.296 OA
HETATM   19  C12 RAP A 108       2.448   9.456  12.068  1.00 12.17     0.008 C 
HETATM   20  C13 RAP A 108       3.127  10.602  12.804  1.00 12.80     0.030 C 
HETATM   21  C14 RAP A 108       4.475  10.223  13.410  1.00 10.37     0.121 C 
HETATM   22  C15 RAP A 108       4.897  11.277  14.418  1.00  5.94     0.064 C 
HETATM   23  C16 RAP A 108       5.297  12.637  13.860  1.00  9.79     0.136 C 
HETATM   24  C17 RAP A 108       5.659  13.603  14.967  1.00 15.52    -0.017 C 
HETATM   25  C18 RAP A 108       4.880  14.658  15.165  1.00 14.38    -0.006 C 
HETATM   26  C19 RAP A 108       5.084  15.665  16.216  1.00  9.73    -0.001 C 
HETATM   27  C20 RAP A 108       4.265  16.705  16.280  1.00 10.26    -0.000 C 
HETATM   28  C21 RAP A 108       4.363  17.691  17.372  1.00 11.40    -0.005 C 
HETATM   29  C22 RAP A 108       3.435  18.610  17.565  1.00 17.77    -0.026 C 
HETATM   30  C23 RAP A 108       3.426  19.574  18.730  1.00 15.64     0.022 C 
HETATM   31  C24 RAP A 108       2.094  19.390  19.437  1.00 14.68     0.012 C 
HETATM   32  C25 RAP A 108       1.713  17.979  19.845  1.00 11.87     0.061 C 
HETATM   33  C26 RAP A 108       0.212  17.870  20.080  1.00 11.65     0.180 C 
HETATM   34  C27 RAP A 108      -0.633  17.398  18.901  1.00  8.13     0.203 C 
HETATM   35  C28 RAP A 108      -0.686  15.844  18.754  1.00 10.80     0.163 C 
HETATM   36  C29 RAP A 108       0.542  15.249  18.038  1.00  9.60    -0.019 C 
HETATM   37  C30 RAP A 108       1.457  14.508  18.662  1.00  8.55    -0.025 C 
HETATM   38  C31 RAP A 108       2.704  13.811  18.098  1.00  8.43     0.079 C 
HETATM   39  C32 RAP A 108       2.431  12.314  17.950  1.00 10.69     0.157 C 
HETATM   40  C33 RAP A 108       1.530  11.918  16.786  1.00  6.51     0.095 C 
HETATM   41  C34 RAP A 108       0.523  10.855  17.172  1.00  9.62     0.132 C 
HETATM   42  C43 RAP A 108       1.774   6.997  12.181  1.00 11.25     0.005 C 
HETATM   43  C44 RAP A 108       6.942  13.272  15.750  1.00 14.40     0.029 C 
HETATM   44  C45 RAP A 108       3.589  21.010  18.253  1.00  9.23     0.005 C 
HETATM   45  C46 RAP A 108       2.494  17.519  21.079  1.00 15.99     0.008 C 
HETATM   46  C47 RAP A 108       0.631  15.593  16.564  1.00 14.60     0.029 C 
HETATM   47  C48 RAP A 108       3.876  14.031  19.066  1.00  9.37     0.013 C 
ENDROOT
BRANCH  41  48
HETATM   48  C35 RAP A 108      -0.728  10.671  16.289  1.00  9.58     0.028 C 
HETATM   49  C49 RAP A 108      -0.379  10.260  14.888  1.00  8.29     0.003 C 
BRANCH  48  50
HETATM   50  C36 RAP A 108      -1.612  11.916  16.277  1.00 10.31     0.003 C 
BRANCH  50  51
HETATM   51  C37 RAP A 108      -2.838  11.917  17.193  1.00 22.90     0.003 C 
HETATM   52  C38 RAP A 108      -2.893  10.612  17.997  1.00 14.17     0.032 C 
HETATM   53  C39 RAP A 108      -4.157  10.490  18.850  1.00 34.20     0.142 C 
HETATM   54  C40 RAP A 108      -4.318  11.761  19.753  1.00 38.24     0.138 C 
HETATM   55  C41 RAP A 108      -4.229  13.083  18.964  1.00 16.32     0.032 C 
HETATM   56  C42 RAP A 108      -2.964  13.126  18.119  1.00 14.05     0.003 C 
BRANCH  53  57
HETATM   57  O12 RAP A 108      -3.993   9.343  19.644  1.00 30.82    -0.352 OA
HETATM   58  C52 RAP A 108      -2.782   9.209  20.304  1.00 28.14     0.174 C 
ENDBRANCH  53  57
BRANCH  54  59
HETATM   59  O13 RAP A 108      -5.576  11.702  20.423  1.00 28.84    -0.382 OA
HETATM   60  HO3 RAP A 108      -5.462  11.306  21.296  1.00 13.32     0.210 HD
ENDBRANCH  54  59
ENDBRANCH  50  51
ENDBRANCH  48  50
ENDBRANCH  41  48
BRANCH  35  61
HETATM   61  O10 RAP A 108      -0.797  15.289  20.072  1.00 12.16    -0.378 OA
HETATM   62  HO1 RAP A 108       0.061  15.268  20.522  1.00 13.32     0.211 HD
ENDBRANCH  35  61
BRANCH  16  63
HETATM   63  O6  RAP A 108       4.729   7.434  12.482  1.00 14.16    -0.358 OA
HETATM   64  HO6 RAP A 108       5.418   8.093  12.356  1.00 13.32     0.213 HD
ENDBRANCH  16  63
BRANCH  34  65
HETATM   65  O9  RAP A 108      -1.953  17.831  19.094  1.00 23.09    -0.344 OA
HETATM   66  C51 RAP A 108      -2.874  17.371  18.168  1.00 19.04     0.175 C 
ENDBRANCH  34  65
BRANCH  23  67
HETATM   67  O7  RAP A 108       6.400  12.448  13.029  1.00 20.17    -0.350 OA
HETATM   68  C50 RAP A 108       6.806  13.552  12.285  1.00 28.36     0.175 C 
ENDBRANCH  23  67
TORSDOF 9
ENDMDL
MODEL 3
REMARK VINA RESULT:    -7.317      3.889      8.918
REMARK INTER + INTRA:         -12.015
REMARK INTER:                 -10.037
REMARK INTRA:                  -1.978
REMARK UNBOUND:                -1.490
REMARK  9 active torsions:
REMARK  status: ('A' for Active; 'I' for Inactive)
REMARK    1  A    between atoms: O6_12  and  C10_19 
REMARK    2  A    between atoms: O7_14  and  C16_29 
REMARK    3  A    between atoms: O9_18  and  C27_40 
REMARK    4  A    between atoms: O10_20  and  C28_41 
REMARK    5  A    between atoms: O12_24  and  C39_52 
REMARK    6  A    between atoms: O13_26  and  C40_53 
REMARK    7  A    between atoms: C34_47  and  C35_48 
REMARK    8  A    between atoms: C35_48  and  C36_49 
REMARK    9  A    between atoms: C36_49  and  C37_50 
ROOT
HETATM    1  C1  RAP A 108      -2.795   9.568  19.895  1.00  5.98     0.292 C 
HETATM    2  O1  RAP A 108      -1.438   9.915  20.139  1.00  9.08    -0.302 OA
HETATM    3  C2  RAP A 108      -3.919   9.962  20.853  1.00  6.42     0.171 C 
HETATM    4  O2  RAP A 108      -3.051   8.905  18.893  1.00 14.08    -0.262 OA
HETATM    5  C3  RAP A 108      -5.131  10.480  20.093  1.00  5.50     0.033 C 
HETATM    6  O3  RAP A 108      -3.470   9.401  23.434  1.00 10.38    -0.264 OA
HETATM    7  C4  RAP A 108      -4.952  11.888  19.543  1.00  4.49     0.004 C 
HETATM    8  O4  RAP A 108      -3.863  12.083  24.775  1.00 10.60    -0.281 OA
HETATM    9  C5  RAP A 108      -4.571  12.800  20.695  1.00  4.19     0.024 C 
HETATM   10  O5  RAP A 108      -1.036  12.667  23.482  1.00 10.76    -0.332 OA
HETATM   11  C6  RAP A 108      -3.318  12.324  21.362  1.00  3.25     0.105 C 
HETATM   12  N7  RAP A 108      -3.567  10.963  21.866  1.00  8.46    -0.307 N 
HETATM   13  C8  RAP A 108      -3.317  10.591  23.131  1.00 10.06     0.297 C 
HETATM   14  O8  RAP A 108       3.327  11.129  11.977  1.00 18.31    -0.293 OA
HETATM   15  C9  RAP A 108      -2.965  11.508  24.146  1.00 11.13     0.279 C 
HETATM   16  C10 RAP A 108      -1.501  11.818  24.506  1.00 16.59     0.246 C 
HETATM   17  C11 RAP A 108      -0.583  10.530  24.570  1.00 10.40     0.059 C 
HETATM   18  O11 RAP A 108      -1.341  12.065  18.100  1.00  9.49    -0.296 OA
HETATM   19  C12 RAP A 108       0.915  10.910  24.620  1.00 12.17     0.008 C 
HETATM   20  C13 RAP A 108       1.244  11.921  23.530  1.00 12.80     0.030 C 
HETATM   21  C14 RAP A 108       0.277  13.100  23.482  1.00 10.37     0.121 C 
HETATM   22  C15 RAP A 108       0.442  13.843  22.168  1.00  5.94     0.064 C 
HETATM   23  C16 RAP A 108       1.735  14.627  21.983  1.00  9.79     0.136 C 
HETATM   24  C17 RAP A 108       1.789  15.289  20.623  1.00 15.52    -0.017 C 
HETATM   25  C18 RAP A 108       2.701  14.872  19.753  1.00 14.38    -0.006 C 
HETATM   26  C19 RAP A 108       2.858  15.394  18.388  1.00  9.73    -0.001 C 
HETATM   27  C20 RAP A 108       3.842  14.932  17.631  1.00 10.26    -0.000 C 
HETATM   28  C21 RAP A 108       3.984  15.347  16.223  1.00 11.40    -0.005 C 
HETATM   29  C22 RAP A 108       4.827  14.747  15.403  1.00 17.77    -0.026 C 
HETATM   30  C23 RAP A 108       4.937  15.055  13.926  1.00 15.64     0.022 C 
HETATM   31  C24 RAP A 108       4.716  13.744  13.190  1.00 14.68     0.012 C 
HETATM   32  C25 RAP A 108       3.462  12.960  13.530  1.00 11.87     0.061 C 
HETATM   33  C26 RAP A 108       3.606  11.502  13.114  1.00 11.65     0.180 C 
HETATM   34  C27 RAP A 108       4.100  10.531  14.181  1.00  8.13     0.203 C 
HETATM   35  C28 RAP A 108       2.966  10.003  15.117  1.00 10.80     0.163 C 
HETATM   36  C29 RAP A 108       2.601  10.978  16.254  1.00  9.60    -0.019 C 
HETATM   37  C30 RAP A 108       1.443  11.636  16.303  1.00  8.55    -0.025 C 
HETATM   38  C31 RAP A 108       0.908  12.599  17.372  1.00  8.43     0.079 C 
HETATM   39  C32 RAP A 108      -0.127  11.880  18.237  1.00 10.69     0.157 C 
HETATM   40  C33 RAP A 108       0.432  10.879  19.241  1.00  6.51     0.095 C 
HETATM   41  C34 RAP A 108      -0.383   9.603  19.298  1.00  9.62     0.132 C 
HETATM   42  C43 RAP A 108      -0.931   9.522  25.706  1.00 11.25     0.005 C 
HETATM   43  C44 RAP A 108       0.777  16.425  20.390  1.00 14.40     0.029 C 
HETATM   44  C45 RAP A 108       6.302  15.638  13.589  1.00  9.23     0.005 C 
HETATM   45  C46 RAP A 108       2.215  13.587  12.900  1.00 15.99     0.008 C 
HETATM   46  C47 RAP A 108       3.680  11.137  17.308  1.00 14.60     0.029 C 
HETATM   47  C48 RAP A 108       0.255  13.802  16.673  1.00  9.37     0.013 C 
ENDROOT
BRANCH  41  48
HETATM   48  C35 RAP A 108       0.269   8.339  19.892  1.00  9.58     0.028 C 
HETATM   49  C49 RAP A 108      -0.274   8.004  21.252  1.00  8.29     0.003 C 
BRANCH  48  50
HETATM   50  C36 RAP A 108       1.793   8.444  19.936  1.00 10.31     0.003 C 
BRANCH  50  51
HETATM   51  C37 RAP A 108       2.588   7.489  19.044  1.00 22.90     0.003 C 
HETATM   52  C38 RAP A 108       2.104   7.598  17.593  1.00 14.17     0.032 C 
HETATM   53  C39 RAP A 108       2.774   6.586  16.662  1.00 34.20     0.142 C 
HETATM   54  C40 RAP A 108       4.333   6.695  16.786  1.00 38.24     0.138 C 
HETATM   55  C41 RAP A 108       4.833   6.623  18.243  1.00 16.32     0.032 C 
HETATM   56  C42 RAP A 108       4.108   7.635  19.117  1.00 14.05     0.003 C 
BRANCH  53  57
HETATM   57  O12 RAP A 108       2.363   6.910  15.359  1.00 30.82    -0.352 OA
HETATM   58  C52 RAP A 108       1.996   5.854  14.540  1.00 28.14     0.174 C 
ENDBRANCH  53  57
BRANCH  54  59
HETATM   59  O13 RAP A 108       4.936   5.644  16.033  1.00 28.84    -0.382 OA
HETATM   60  HO3 RAP A 108       4.976   4.842  16.569  1.00 13.32     0.210 HD
ENDBRANCH  54  59
ENDBRANCH  50  51
ENDBRANCH  48  50
ENDBRANCH  41  48
BRANCH  35  61
HETATM   61  O10 RAP A 108       1.813   9.755  14.302  1.00 12.16    -0.378 OA
HETATM   62  HO1 RAP A 108       1.262  10.546  14.214  1.00 13.32     0.211 HD
ENDBRANCH  35  61
BRANCH  16  63
HETATM   63  O6  RAP A 108      -1.468  12.475  25.777  1.00 14.16    -0.358 OA
HETATM   64  HO6 RAP A 108      -2.368  12.722  26.008  1.00 13.32     0.213 HD
ENDBRANCH  16  63
BRANCH  34  65
HETATM   65  O9  RAP A 108       4.652   9.409  13.545  1.00 23.09    -0.344 OA
HETATM   66  C51 RAP A 108       5.814   9.640  12.828  1.00 19.04     0.175 C 
ENDBRANCH  34  65
BRANCH  23  67
HETATM   67  O7  RAP A 108       1.786  15.604  22.976  1.00 20.17    -0.350 OA
HETATM   68  C50 RAP A 108       3.012  15.769  23.615  1.00 28.36     0.175 C 
ENDBRANCH  23  67
TORSDOF 9
ENDMDL
MODEL 4
REMARK VINA RESULT:    -7.303      5.316     10.010
REMARK INTER + INTRA:         -11.996
REMARK INTER:                 -10.127
REMARK INTRA:                  -1.869
REMARK UNBOUND:                -1.490
REMARK  9 active torsions:
REMARK  status: ('A' for Active; 'I' for Inactive)
REMARK    1  A    between atoms: O6_12  and  C10_19 
REMARK    2  A    between atoms: O7_14  and  C16_29 
REMARK    3  A    between atoms: O9_18  and  C27_40 
REMARK    4  A    between atoms: O10_20  and  C28_41 
REMARK    5  A    between atoms: O12_24  and  C39_52 
REMARK    6  A    between atoms: O13_26  and  C40_53 
REMARK    7  A    between atoms: C34_47  and  C35_48 
REMARK    8  A    between atoms: C35_48  and  C36_49 
REMARK    9  A    between atoms: C36_49  and  C37_50 
ROOT
HETATM    1  C1  RAP A 108      -2.359   6.348  23.058  1.00  5.98     0.292 C 
HETATM    2  O1  RAP A 108      -1.564   7.484  22.745  1.00  9.08    -0.302 OA
HETATM    3  C2  RAP A 108      -2.800   6.034  24.487  1.00  6.42     0.171 C 
HETATM    4  O2  RAP A 108      -2.667   5.587  22.143  1.00 14.08    -0.262 OA
HETATM    5  C3  RAP A 108      -4.262   5.616  24.531  1.00  5.50     0.033 C 
HETATM    6  O3  RAP A 108      -0.851   6.097  26.324  1.00 10.38    -0.264 OA
HETATM    7  C4  RAP A 108      -5.234   6.775  24.364  1.00  4.49     0.004 C 
HETATM    8  O4  RAP A 108      -1.927   8.050  28.367  1.00 10.60    -0.281 OA
HETATM    9  C5  RAP A 108      -4.911   7.819  25.417  1.00  4.19     0.024 C 
HETATM   10  O5  RAP A 108      -1.132  10.156  26.147  1.00 10.76    -0.332 OA
HETATM   11  C6  RAP A 108      -3.494   8.287  25.287  1.00  3.25     0.105 C 
HETATM   12  N7  RAP A 108      -2.617   7.117  25.459  1.00  8.46    -0.307 N 
HETATM   13  C8  RAP A 108      -1.588   7.092  26.320  1.00 10.06     0.297 C 
HETATM   14  O8  RAP A 108      -3.470  10.706  13.981  1.00 18.31    -0.293 OA
HETATM   15  C9  RAP A 108      -1.356   8.110  27.271  1.00 11.13     0.279 C 
HETATM   16  C10 RAP A 108      -0.412   9.295  26.998  1.00 16.59     0.246 C 
HETATM   17  C11 RAP A 108       0.938   8.871  26.288  1.00 10.40     0.059 C 
HETATM   18  O11 RAP A 108      -3.786   9.042  21.550  1.00  9.49    -0.296 OA
HETATM   19  C12 RAP A 108       1.702  10.106  25.755  1.00 12.17     0.008 C 
HETATM   20  C13 RAP A 108       0.770  11.003  24.954  1.00 12.80     0.030 C 
HETATM   21  C14 RAP A 108      -0.541  11.313  25.669  1.00 10.37     0.121 C 
HETATM   22  C15 RAP A 108      -1.543  11.881  24.680  1.00  5.94     0.064 C 
HETATM   23  C16 RAP A 108      -1.261  13.282  24.149  1.00  9.79     0.136 C 
HETATM   24  C17 RAP A 108      -2.311  13.713  23.148  1.00 15.52    -0.017 C 
HETATM   25  C18 RAP A 108      -1.946  13.885  21.884  1.00 14.38    -0.006 C 
HETATM   26  C19 RAP A 108      -2.854  14.272  20.795  1.00  9.73    -0.001 C 
HETATM   27  C20 RAP A 108      -2.358  14.462  19.580  1.00 10.26    -0.000 C 
HETATM   28  C21 RAP A 108      -3.237  14.753  18.433  1.00 11.40    -0.005 C 
HETATM   29  C22 RAP A 108      -2.787  14.744  17.192  1.00 17.77    -0.026 C 
HETATM   30  C23 RAP A 108      -3.660  14.926  15.970  1.00 15.64     0.022 C 
HETATM   31  C24 RAP A 108      -3.439  13.707  15.091  1.00 14.68     0.012 C 
HETATM   32  C25 RAP A 108      -3.615  12.345  15.735  1.00 11.87     0.061 C 
HETATM   33  C26 RAP A 108      -2.912  11.266  14.922  1.00 11.65     0.180 C 
HETATM   34  C27 RAP A 108      -1.490  10.910  15.342  1.00  8.13     0.203 C 
HETATM   35  C28 RAP A 108      -1.425   9.872  16.508  1.00 10.80     0.163 C 
HETATM   36  C29 RAP A 108      -1.619  10.499  17.902  1.00  9.60    -0.019 C 
HETATM   37  C30 RAP A 108      -2.705  10.292  18.646  1.00  8.55    -0.025 C 
HETATM   38  C31 RAP A 108      -3.037  10.798  20.058  1.00  8.43     0.079 C 
HETATM   39  C32 RAP A 108      -2.837   9.667  21.067  1.00 10.69     0.157 C 
HETATM   40  C33 RAP A 108      -1.389   9.323  21.396  1.00  6.51     0.095 C 
HETATM   41  C34 RAP A 108      -1.153   7.828  21.468  1.00  9.62     0.132 C 
HETATM   42  C43 RAP A 108       1.881   7.968  27.137  1.00 11.25     0.005 C 
HETATM   43  C44 RAP A 108      -3.722  13.945  23.717  1.00 14.40     0.029 C 
HETATM   44  C45 RAP A 108      -3.298  16.202  15.224  1.00  9.23     0.005 C 
HETATM   45  C46 RAP A 108      -5.094  12.001  15.935  1.00 15.99     0.008 C 
HETATM   46  C47 RAP A 108      -0.473  11.386  18.352  1.00 14.60     0.029 C 
HETATM   47  C48 RAP A 108      -4.500  11.265  20.086  1.00  9.37     0.013 C 
ENDROOT
BRANCH  41  48
HETATM   48  C35 RAP A 108       0.290   7.304  21.335  1.00  9.58     0.028 C 
HETATM   49  C49 RAP A 108       1.002   7.255  22.656  1.00  8.29     0.003 C 
BRANCH  48  50
HETATM   50  C36 RAP A 108       1.103   8.105  20.320  1.00 10.31     0.003 C 
BRANCH  50  51
HETATM   51  C37 RAP A 108       2.048   7.325  19.403  1.00 22.90     0.003 C 
HETATM   52  C38 RAP A 108       1.665   7.552  17.936  1.00 14.17     0.032 C 
HETATM   53  C39 RAP A 108       2.494   6.710  16.965  1.00 34.20     0.142 C 
HETATM   54  C40 RAP A 108       4.022   6.935  17.230  1.00 38.24     0.138 C 
HETATM   55  C41 RAP A 108       4.417   6.745  18.709  1.00 16.32     0.032 C 
HETATM   56  C42 RAP A 108       3.538   7.589  19.619  1.00 14.05     0.003 C 
BRANCH  53  57
HETATM   57  O12 RAP A 108       2.152   7.140  15.672  1.00 30.82    -0.352 OA
HETATM   58  C52 RAP A 108       1.956   6.154  14.718  1.00 28.14     0.174 C 
ENDBRANCH  53  57
BRANCH  54  59
HETATM   59  O13 RAP A 108       4.775   6.029  16.426  1.00 28.84    -0.382 OA
HETATM   60  HO3 RAP A 108       5.240   5.400  16.993  1.00 13.32     0.210 HD
ENDBRANCH  54  59
ENDBRANCH  50  51
ENDBRANCH  48  50
ENDBRANCH  41  48
BRANCH  35  61
HETATM   61  O10 RAP A 108      -2.442   8.891  16.270  1.00 12.16    -0.378 OA
HETATM   62  HO1 RAP A 108      -2.082   7.992  16.292  1.00 13.32     0.211 HD
ENDBRANCH  35  61
BRANCH  16  63
HETATM   63  O6  RAP A 108      -0.103   9.933  28.240  1.00 14.16    -0.358 OA
HETATM   64  HO6 RAP A 108      -0.773  10.601  28.407  1.00 13.32     0.213 HD
ENDBRANCH  16  63
BRANCH  34  65
HETATM   65  O9  RAP A 108      -0.831  10.329  14.248  1.00 23.09    -0.344 OA
HETATM   66  C51 RAP A 108       0.509  10.041  14.441  1.00 19.04     0.175 C 
ENDBRANCH  34  65
BRANCH  23  67
HETATM   67  O7  RAP A 108      -1.267  14.157  25.234  1.00 20.17    -0.350 OA
HETATM   68  C50 RAP A 108      -0.205  15.054  25.307  1.00 28.36     0.175 C 
ENDBRANCH  23  67
TORSDOF 9
ENDMDL
MODEL 5
REMARK VINA RESULT:    -7.230      2.621      8.137
REMARK INTER + INTRA:         -11.890
REMARK INTER:                  -9.731
REMARK INTRA:                  -2.158
REMARK UNBOUND:                -1.490
REMARK  9 active torsions:
REMARK  status: ('A' for Active; 'I' for Inactive)
REMARK    1  A    between atoms: O6_12  and  C10_19 
REMARK    2  A    between atoms: O7_14  and  C16_29 
REMARK    3  A    between atoms: O9_18  and  C27_40 
REMARK    4  A    between atoms: O10_20  and  C28_41 
REMARK    5  A    between atoms: O12_24  and  C39_52 
REMARK    6  A    between atoms: O13_26  and  C40_53 
REMARK    7  A    between atoms: C34_47  and  C35_48 
REMARK    8  A    between atoms: C35_48  and  C36_49 
REMARK    9  A    between atoms: C36_49  and  C37_50 
ROOT
HETATM    1  C1  RAP A 108      -0.954   9.647  15.811  1.00  5.98     0.292 C 
HETATM    2  O1  RAP A 108       0.001  10.305  16.633  1.00  9.08    -0.302 OA
HETATM    3  C2  RAP A 108      -2.453   9.711  16.099  1.00  6.42     0.171 C 
HETATM    4  O2  RAP A 108      -0.541   8.986  14.861  1.00 14.08    -0.262 OA
HETATM    5  C3  RAP A 108      -3.247   9.948  14.822  1.00  5.50     0.033 C 
HETATM    6  O3  RAP A 108      -3.157   9.164  18.625  1.00 10.38    -0.264 OA
HETATM    7  C4  RAP A 108      -3.168  11.379  14.311  1.00  4.49     0.004 C 
HETATM    8  O4  RAP A 108      -4.759  11.606  19.411  1.00 10.60    -0.281 OA
HETATM    9  C5  RAP A 108      -3.605  12.306  15.431  1.00  4.19     0.024 C 
HETATM   10  O5  RAP A 108      -1.886  12.922  19.548  1.00 10.76    -0.332 OA
HETATM   11  C6  RAP A 108      -2.742  12.123  16.642  1.00  3.25     0.105 C 
HETATM   12  N7  RAP A 108      -2.870  10.722  17.076  1.00  8.46    -0.307 N 
HETATM   13  C8  RAP A 108      -3.166  10.368  18.336  1.00 10.06     0.297 C 
HETATM   14  O8  RAP A 108       7.613  13.009  11.578  1.00 18.31    -0.293 OA
HETATM   15  C9  RAP A 108      -3.564  11.298  19.322  1.00 11.13     0.279 C 
HETATM   16  C10 RAP A 108      -2.563  11.942  20.299  1.00 16.59     0.246 C 
HETATM   17  C11 RAP A 108      -1.509  10.916  20.886  1.00 10.40     0.059 C 
HETATM   18  O11 RAP A 108       0.538  12.500  14.714  1.00  9.49    -0.296 OA
HETATM   19  C12 RAP A 108      -0.351  11.651  21.600  1.00 12.17     0.008 C 
HETATM   20  C13 RAP A 108       0.204  12.758  20.715  1.00 12.80     0.030 C 
HETATM   21  C14 RAP A 108      -0.874  13.664  20.128  1.00 10.37     0.121 C 
HETATM   22  C15 RAP A 108      -0.290  14.482  18.989  1.00  5.94     0.064 C 
HETATM   23  C16 RAP A 108       0.711  15.567  19.369  1.00  9.79     0.136 C 
HETATM   24  C17 RAP A 108       1.242  16.280  18.144  1.00 15.52    -0.017 C 
HETATM   25  C18 RAP A 108       2.525  16.139  17.838  1.00 14.38    -0.006 C 
HETATM   26  C19 RAP A 108       3.179  16.742  16.668  1.00  9.73    -0.001 C 
HETATM   27  C20 RAP A 108       4.482  16.570  16.498  1.00 10.26    -0.000 C 
HETATM   28  C21 RAP A 108       5.169  17.068  15.292  1.00 11.40    -0.005 C 
HETATM   29  C22 RAP A 108       6.413  16.730  15.011  1.00 17.77    -0.026 C 
HETATM   30  C23 RAP A 108       7.131  17.120  13.737  1.00 15.64     0.022 C 
HETATM   31  C24 RAP A 108       7.601  15.828  13.090  1.00 14.68     0.012 C 
HETATM   32  C25 RAP A 108       6.561  14.746  12.864  1.00 11.87     0.061 C 
HETATM   33  C26 RAP A 108       7.225  13.388  12.680  1.00 11.65     0.180 C 
HETATM   34  C27 RAP A 108       7.371  12.522  13.927  1.00  8.13     0.203 C 
HETATM   35  C28 RAP A 108       6.091  11.692  14.262  1.00 10.80     0.163 C 
HETATM   36  C29 RAP A 108       5.014  12.496  15.016  1.00  9.60    -0.019 C 
HETATM   37  C30 RAP A 108       3.852  12.847  14.467  1.00  8.55    -0.025 C 
HETATM   38  C31 RAP A 108       2.665  13.602  15.082  1.00  8.43     0.079 C 
HETATM   39  C32 RAP A 108       1.547  12.613  15.416  1.00 10.69     0.157 C 
HETATM   40  C33 RAP A 108       1.785  11.737  16.641  1.00  6.51     0.095 C 
HETATM   41  C34 RAP A 108       1.368  10.299  16.410  1.00  9.62     0.132 C 
HETATM   42  C43 RAP A 108      -2.102   9.805  21.803  1.00 11.25     0.005 C 
HETATM   43  C44 RAP A 108       0.223  17.142  17.378  1.00 14.40     0.029 C 
HETATM   44  C45 RAP A 108       8.311  18.034  14.033  1.00  9.23     0.005 C 
HETATM   45  C46 RAP A 108       5.652  15.075  11.678  1.00 15.99     0.008 C 
HETATM   46  C47 RAP A 108       5.395  12.870  16.436  1.00 14.60     0.029 C 
HETATM   47  C48 RAP A 108       2.155  14.636  14.067  1.00  9.37     0.013 C 
ENDROOT
BRANCH  41  48
HETATM   48  C35 RAP A 108       1.941   9.209  17.338  1.00  9.58     0.028 C 
HETATM   49  C49 RAP A 108       2.752   9.787  18.461  1.00  8.29     0.003 C 
BRANCH  48  50
HETATM   50  C36 RAP A 108       2.756   8.170  16.570  1.00 10.31     0.003 C 
BRANCH  50  51
HETATM   51  C37 RAP A 108       2.357   7.899  15.117  1.00 22.90     0.003 C 
HETATM   52  C38 RAP A 108       3.441   8.423  14.168  1.00 14.17     0.032 C 
HETATM   53  C39 RAP A 108       3.058   8.292  12.693  1.00 34.20     0.142 C 
HETATM   54  C40 RAP A 108       2.643   6.814  12.376  1.00 38.24     0.138 C 
HETATM   55  C41 RAP A 108       1.578   6.260  13.345  1.00 16.32     0.032 C 
HETATM   56  C42 RAP A 108       2.011   6.446  14.792  1.00 14.05     0.003 C 
BRANCH  53  57
HETATM   57  O12 RAP A 108       4.195   8.652  11.952  1.00 30.82    -0.352 OA
HETATM   58  C52 RAP A 108       5.335   7.888  12.149  1.00 28.14     0.174 C 
ENDBRANCH  53  57
BRANCH  54  59
HETATM   59  O13 RAP A 108       2.141   6.745  11.043  1.00 28.84    -0.382 OA
HETATM   60  HO3 RAP A 108       2.756   6.248  10.489  1.00 13.32     0.210 HD
ENDBRANCH  54  59
ENDBRANCH  50  51
ENDBRANCH  48  50
ENDBRANCH  41  48
BRANCH  35  61
HETATM   61  O10 RAP A 108       5.555  11.204  13.025  1.00 12.16    -0.378 OA
HETATM   62  HO1 RAP A 108       4.741  10.699  13.165  1.00 13.32     0.211 HD
ENDBRANCH  35  61
BRANCH  16  63
HETATM   63  O6  RAP A 108      -3.291  12.530  21.382  1.00 14.16    -0.358 OA
HETATM   64  HO6 RAP A 108      -3.408  11.859  22.061  1.00 13.32     0.213 HD
ENDBRANCH  16  63
BRANCH  34  65
HETATM   65  O9  RAP A 108       8.405  11.599  13.714  1.00 23.09    -0.344 OA
HETATM   66  C51 RAP A 108       9.655  11.986  14.167  1.00 19.04     0.175 C 
ENDBRANCH  34  65
BRANCH  23  67
HETATM   67  O7  RAP A 108       0.054  16.482  20.190  1.00 20.17    -0.350 OA
HETATM   68  C50 RAP A 108       0.746  16.899  21.324  1.00 28.36     0.175 C 
ENDBRANCH  23  67
TORSDOF 9
ENDMDL
MODEL 6
REMARK VINA RESULT:    -7.167      1.299      1.740
REMARK INTER + INTRA:         -11.799
REMARK INTER:                  -9.982
REMARK INTRA:                  -1.817
REMARK UNBOUND:                -1.490
REMARK  9 active torsions:
REMARK  status: ('A' for Active; 'I' for Inactive)
REMARK    1  A    between atoms: O6_12  and  C10_19 
REMARK    2  A    between atoms: O7_14  and  C16_29 
REMARK    3  A    between atoms: O9_18  and  C27_40 
REMARK    4  A    between atoms: O10_20  and  C28_41 
REMARK    5  A    between atoms: O12_24  and  C39_52 
REMARK    6  A    between atoms: O13_26  and  C40_53 
REMARK    7  A    between atoms: C34_47  and  C35_48 
REMARK    8  A    between atoms: C35_48  and  C36_49 
REMARK    9  A    between atoms: C36_49  and  C37_50 
ROOT
HETATM    1  C1  RAP A 108       1.020   8.790  17.918  1.00  5.98     0.292 C 
HETATM    2  O1  RAP A 108       1.142   9.810  16.936  1.00  9.08    -0.302 OA
HETATM    3  C2  RAP A 108       1.818   7.489  17.840  1.00  6.42     0.171 C 
HETATM    4  O2  RAP A 108       0.222   8.963  18.836  1.00 14.08    -0.262 OA
HETATM    5  C3  RAP A 108       2.387   7.112  19.200  1.00  5.50     0.033 C 
HETATM    6  O3  RAP A 108       1.740   6.241  15.470  1.00 10.38    -0.264 OA
HETATM    7  C4  RAP A 108       3.585   7.954  19.615  1.00  4.49     0.004 C 
HETATM    8  O4  RAP A 108       4.669   5.939  14.782  1.00 10.60    -0.281 OA
HETATM    9  C5  RAP A 108       4.629   7.865  18.517  1.00  4.19     0.024 C 
HETATM   10  O5  RAP A 108       4.408   9.032  14.174  1.00 10.76    -0.332 OA
HETATM   11  C6  RAP A 108       4.072   8.337  17.210  1.00  3.25     0.105 C 
HETATM   12  N7  RAP A 108       2.923   7.479  16.876  1.00  8.46    -0.307 N 
HETATM   13  C8  RAP A 108       2.786   6.864  15.691  1.00 10.06     0.297 C 
HETATM   14  O8  RAP A 108      -0.345  18.428  20.724  1.00 18.31    -0.293 OA
HETATM   15  C9  RAP A 108       3.812   6.830  14.720  1.00 11.13     0.279 C 
HETATM   16  C10 RAP A 108       3.902   7.859  13.579  1.00 16.59     0.246 C 
HETATM   17  C11 RAP A 108       2.504   8.178  12.908  1.00 10.40     0.059 C 
HETATM   18  O11 RAP A 108       2.750  11.628  18.638  1.00  9.49    -0.296 OA
HETATM   19  C12 RAP A 108       2.590   9.427  12.001  1.00 12.17     0.008 C 
HETATM   20  C13 RAP A 108       3.263  10.576  12.738  1.00 12.80     0.030 C 
HETATM   21  C14 RAP A 108       4.570  10.179  13.418  1.00 10.37     0.121 C 
HETATM   22  C15 RAP A 108       4.972  11.250  14.417  1.00  5.94     0.064 C 
HETATM   23  C16 RAP A 108       5.433  12.583  13.842  1.00  9.79     0.136 C 
HETATM   24  C17 RAP A 108       5.768  13.570  14.940  1.00 15.52    -0.017 C 
HETATM   25  C18 RAP A 108       5.009  14.650  15.072  1.00 14.38    -0.006 C 
HETATM   26  C19 RAP A 108       5.190  15.681  16.104  1.00  9.73    -0.001 C 
HETATM   27  C20 RAP A 108       4.396  16.743  16.100  1.00 10.26    -0.000 C 
HETATM   28  C21 RAP A 108       4.468  17.755  17.169  1.00 11.40    -0.005 C 
HETATM   29  C22 RAP A 108       3.557  18.703  17.292  1.00 17.77    -0.026 C 
HETATM   30  C23 RAP A 108       3.517  19.699  18.430  1.00 15.64     0.022 C 
HETATM   31  C24 RAP A 108       2.149  19.569  19.075  1.00 14.68     0.012 C 
HETATM   32  C25 RAP A 108       1.712  18.180  19.503  1.00 11.87     0.061 C 
HETATM   33  C26 RAP A 108       0.199  18.115  19.667  1.00 11.65     0.180 C 
HETATM   34  C27 RAP A 108      -0.601  17.633  18.462  1.00  8.13     0.203 C 
HETATM   35  C28 RAP A 108      -0.689  16.076  18.354  1.00 10.80     0.163 C 
HETATM   36  C29 RAP A 108       0.556  15.431  17.715  1.00  9.60    -0.019 C 
HETATM   37  C30 RAP A 108       1.420  14.685  18.401  1.00  8.55    -0.025 C 
HETATM   38  C31 RAP A 108       2.673  13.941  17.917  1.00  8.43     0.079 C 
HETATM   39  C32 RAP A 108       2.368  12.448  17.797  1.00 10.69     0.157 C 
HETATM   40  C33 RAP A 108       1.513  12.042  16.601  1.00  6.51     0.095 C 
HETATM   41  C34 RAP A 108       0.461  11.016  16.966  1.00  9.62     0.132 C 
HETATM   42  C43 RAP A 108       1.846   6.990  12.146  1.00 11.25     0.005 C 
HETATM   43  C44 RAP A 108       7.003  13.229  15.793  1.00 14.40     0.029 C 
HETATM   44  C45 RAP A 108       3.741  21.117  17.922  1.00  9.23     0.005 C 
HETATM   45  C46 RAP A 108       2.420  17.734  20.785  1.00 15.99     0.008 C 
HETATM   46  C47 RAP A 108       0.724  15.731  16.237  1.00 14.60     0.029 C 
HETATM   47  C48 RAP A 108       3.804  14.158  18.935  1.00  9.37     0.013 C 
ENDROOT
BRANCH  41  48
HETATM   48  C35 RAP A 108      -0.750  10.839  16.029  1.00  9.58     0.028 C 
HETATM   49  C49 RAP A 108      -0.818   9.458  15.442  1.00  8.29     0.003 C 
BRANCH  48  50
HETATM   50  C36 RAP A 108      -0.781  11.892  14.923  1.00 10.31     0.003 C 
BRANCH  50  51
HETATM   51  C37 RAP A 108      -2.141  12.499  14.570  1.00 22.90     0.003 C 
HETATM   52  C38 RAP A 108      -2.337  13.823  15.318  1.00 14.17     0.032 C 
HETATM   53  C39 RAP A 108      -3.724  14.431  15.105  1.00 34.20     0.142 C 
HETATM   54  C40 RAP A 108      -4.024  14.555  13.571  1.00 38.24     0.138 C 
HETATM   55  C41 RAP A 108      -3.798  13.240  12.799  1.00 16.32     0.032 C 
HETATM   56  C42 RAP A 108      -2.411  12.678  13.076  1.00 14.05     0.003 C 
BRANCH  53  57
HETATM   57  O12 RAP A 108      -3.700  15.701  15.704  1.00 30.82    -0.352 OA
HETATM   58  C52 RAP A 108      -2.743  16.591  15.242  1.00 28.14     0.174 C 
ENDBRANCH  53  57
BRANCH  54  59
HETATM   59  O13 RAP A 108      -5.376  14.975  13.392  1.00 28.84    -0.382 OA
HETATM   60  HO3 RAP A 108      -5.401  15.924  13.217  1.00 13.32     0.210 HD
ENDBRANCH  54  59
ENDBRANCH  50  51
ENDBRANCH  48  50
ENDBRANCH  41  48
BRANCH  35  61
HETATM   61  O10 RAP A 108      -0.877  15.561  19.679  1.00 12.16    -0.378 OA
HETATM   62  HO1 RAP A 108      -0.095  15.707  20.231  1.00 13.32     0.211 HD
ENDBRANCH  35  61
BRANCH  16  63
HETATM   63  O6  RAP A 108       4.794   7.360  12.578  1.00 14.16    -0.358 OA
HETATM   64  HO6 RAP A 108       5.175   8.113  12.117  1.00 13.32     0.213 HD
ENDBRANCH  16  63
BRANCH  34  65
HETATM   65  O9  RAP A 108      -1.917  18.103  18.579  1.00 23.09    -0.344 OA
HETATM   66  C51 RAP A 108      -2.215  19.237  17.842  1.00 19.04     0.175 C 
ENDBRANCH  34  65
BRANCH  23  67
HETATM   67  O7  RAP A 108       6.570  12.344  13.072  1.00 20.17    -0.350 OA
HETATM   68  C50 RAP A 108       7.008  13.398  12.276  1.00 28.36     0.175 C 
ENDBRANCH  23  67
TORSDOF 9
ENDMDL
MODEL 7
REMARK VINA RESULT:    -7.062      5.359      9.291
REMARK INTER + INTRA:         -11.648
REMARK INTER:                  -9.866
REMARK INTRA:                  -1.782
REMARK UNBOUND:                -1.490
REMARK  9 active torsions:
REMARK  status: ('A' for Active; 'I' for Inactive)
REMARK    1  A    between atoms: O6_12  and  C10_19 
REMARK    2  A    between atoms: O7_14  and  C16_29 
REMARK    3  A    between atoms: O9_18  and  C27_40 
REMARK    4  A    between atoms: O10_20  and  C28_41 
REMARK    5  A    between atoms: O12_24  and  C39_52 
REMARK    6  A    between atoms: O13_26  and  C40_53 
REMARK    7  A    between atoms: C34_47  and  C35_48 
REMARK    8  A    between atoms: C35_48  and  C36_49 
REMARK    9  A    between atoms: C36_49  and  C37_50 
ROOT
HETATM    1  C1  RAP A 108      -2.721   7.830  22.066  1.00  5.98     0.292 C 
HETATM    2  O1  RAP A 108      -1.373   8.231  22.272  1.00  9.08    -0.302 OA
HETATM    3  C2  RAP A 108      -3.531   7.119  23.150  1.00  6.42     0.171 C 
HETATM    4  O2  RAP A 108      -3.227   8.043  20.966  1.00 14.08    -0.262 OA
HETATM    5  C3  RAP A 108      -4.940   7.687  23.244  1.00  5.50     0.033 C 
HETATM    6  O3  RAP A 108      -2.310   5.031  24.303  1.00 10.38    -0.264 OA
HETATM    7  C4  RAP A 108      -5.005   9.046  23.927  1.00  4.49     0.004 C 
HETATM    8  O4  RAP A 108      -2.431   5.733  27.242  1.00 10.60    -0.281 OA
HETATM    9  C5  RAP A 108      -4.350   8.922  25.291  1.00  4.19     0.024 C 
HETATM   10  O5  RAP A 108      -0.148   7.759  26.417  1.00 10.76    -0.332 OA
HETATM   11  C6  RAP A 108      -2.932   8.457  25.161  1.00  3.25     0.105 C 
HETATM   12  N7  RAP A 108      -2.949   7.144  24.496  1.00  8.46    -0.307 N 
HETATM   13  C8  RAP A 108      -2.317   6.065  24.983  1.00 10.06     0.297 C 
HETATM   14  O8  RAP A 108       0.696  16.052  17.236  1.00 18.31    -0.293 OA
HETATM   15  C9  RAP A 108      -1.730   6.034  26.268  1.00 11.13     0.279 C 
HETATM   16  C10 RAP A 108      -0.243   6.357  26.503  1.00 16.59     0.246 C 
HETATM   17  C11 RAP A 108       0.719   5.703  25.429  1.00 10.40     0.059 C 
HETATM   18  O11 RAP A 108      -1.996  11.114  22.576  1.00  9.49    -0.296 OA
HETATM   19  C12 RAP A 108       2.142   6.301  25.514  1.00 12.17     0.008 C 
HETATM   20  C13 RAP A 108       2.081   7.822  25.530  1.00 12.80     0.030 C 
HETATM   21  C14 RAP A 108       1.082   8.380  26.539  1.00 10.37     0.121 C 
HETATM   22  C15 RAP A 108       0.812   9.843  26.235  1.00  5.94     0.064 C 
HETATM   23  C16 RAP A 108       1.950  10.820  26.507  1.00  9.79     0.136 C 
HETATM   24  C17 RAP A 108       1.564  12.234  26.129  1.00 15.52    -0.017 C 
HETATM   25  C18 RAP A 108       2.199  12.813  25.118  1.00 14.38    -0.006 C 
HETATM   26  C19 RAP A 108       1.917  14.165  24.616  1.00  9.73    -0.001 C 
HETATM   27  C20 RAP A 108       2.657  14.654  23.630  1.00 10.26    -0.000 C 
HETATM   28  C21 RAP A 108       2.355  15.963  23.023  1.00 11.40    -0.005 C 
HETATM   29  C22 RAP A 108       2.947  16.370  21.916  1.00 17.77    -0.026 C 
HETATM   30  C23 RAP A 108       2.600  17.650  21.188  1.00 15.64     0.022 C 
HETATM   31  C24 RAP A 108       2.241  17.258  19.765  1.00 14.68     0.012 C 
HETATM   32  C25 RAP A 108       1.187  16.181  19.586  1.00 11.87     0.061 C 
HETATM   33  C26 RAP A 108       1.278  15.560  18.199  1.00 11.65     0.180 C 
HETATM   34  C27 RAP A 108       2.116  14.291  18.070  1.00  8.13     0.203 C 
HETATM   35  C28 RAP A 108       1.338  12.989  18.447  1.00 10.80     0.163 C 
HETATM   36  C29 RAP A 108       1.275  12.726  19.964  1.00  9.60    -0.019 C 
HETATM   37  C30 RAP A 108       0.151  12.825  20.672  1.00  8.55    -0.025 C 
HETATM   38  C31 RAP A 108      -0.095  12.558  22.164  1.00  8.43     0.079 C 
HETATM   39  C32 RAP A 108      -0.789  11.207  22.335  1.00 10.69     0.157 C 
HETATM   40  C33 RAP A 108       0.094   9.980  22.134  1.00  6.51     0.095 C 
HETATM   41  C34 RAP A 108      -0.599   8.896  21.335  1.00  9.62     0.132 C 
HETATM   42  C43 RAP A 108       0.776   4.146  25.448  1.00 11.25     0.005 C 
HETATM   43  C44 RAP A 108       0.470  12.883  26.995  1.00 14.40     0.029 C 
HETATM   44  C45 RAP A 108       3.771  18.621  21.200  1.00  9.23     0.005 C 
HETATM   45  C46 RAP A 108      -0.221  16.720  19.852  1.00 15.99     0.008 C 
HETATM   46  C47 RAP A 108       2.608  12.358  20.589  1.00 14.60     0.029 C 
HETATM   47  C48 RAP A 108      -0.988  13.675  22.727  1.00  9.37     0.013 C 
ENDROOT
BRANCH  41  48
HETATM   48  C35 RAP A 108       0.266   7.813  20.660  1.00  9.58     0.028 C 
HETATM   49  C49 RAP A 108       1.082   7.037  21.652  1.00  8.29     0.003 C 
BRANCH  48  50
HETATM   50  C36 RAP A 108       1.162   8.392  19.566  1.00 10.31     0.003 C 
BRANCH  50  51
HETATM   51  C37 RAP A 108       2.166   7.444  18.906  1.00 22.90     0.003 C 
HETATM   52  C38 RAP A 108       1.884   7.342  17.403  1.00 14.17     0.032 C 
HETATM   53  C39 RAP A 108       2.775   6.320  16.696  1.00 34.20     0.142 C 
HETATM   54  C40 RAP A 108       4.283   6.618  17.007  1.00 38.24     0.138 C 
HETATM   55  C41 RAP A 108       4.576   6.758  18.514  1.00 16.32     0.032 C 
HETATM   56  C42 RAP A 108       3.638   7.769  19.158  1.00 14.05     0.003 C 
BRANCH  53  57
HETATM   57  O12 RAP A 108       2.523   6.455  15.320  1.00 30.82    -0.352 OA
HETATM   58  C52 RAP A 108       1.661   7.472  14.941  1.00 28.14     0.174 C 
ENDBRANCH  53  57
BRANCH  54  59
HETATM   59  O13 RAP A 108       5.086   5.569  16.471  1.00 28.84    -0.382 OA
HETATM   60  HO3 RAP A 108       5.005   4.782  17.024  1.00 13.32     0.210 HD
ENDBRANCH  54  59
ENDBRANCH  50  51
ENDBRANCH  48  50
ENDBRANCH  41  48
BRANCH  35  61
HETATM   61  O10 RAP A 108       0.011  13.111  17.919  1.00 12.16    -0.378 OA
HETATM   62  HO1 RAP A 108      -0.044  13.813  17.255  1.00 13.32     0.211 HD
ENDBRANCH  35  61
BRANCH  16  63
HETATM   63  O6  RAP A 108       0.129   5.891  27.804  1.00 14.16    -0.358 OA
HETATM   64  HO6 RAP A 108       0.739   5.157  27.694  1.00 13.32     0.213 HD
ENDBRANCH  16  63
BRANCH  34  65
HETATM   65  O9  RAP A 108       2.514  14.151  16.733  1.00 23.09    -0.344 OA
HETATM   66  C51 RAP A 108       3.379  13.101  16.474  1.00 19.04     0.175 C 
ENDBRANCH  34  65
BRANCH  23  67
HETATM   67  O7  RAP A 108       2.240  10.767  27.869  1.00 20.17    -0.350 OA
HETATM   68  C50 RAP A 108       3.550  10.440  28.206  1.00 28.36     0.175 C 
ENDBRANCH  23  67
TORSDOF 9
ENDMDL
MODEL 8
REMARK VINA RESULT:    -6.939      3.274      9.068
REMARK INTER + INTRA:         -11.471
REMARK INTER:                  -8.921
REMARK INTRA:                  -2.550
REMARK UNBOUND:                -1.490
REMARK  9 active torsions:
REMARK  status: ('A' for Active; 'I' for Inactive)
REMARK    1  A    between atoms: O6_12  and  C10_19 
REMARK    2  A    between atoms: O7_14  and  C16_29 
REMARK    3  A    between atoms: O9_18  and  C27_40 
REMARK    4  A    between atoms: O10_20  and  C28_41 
REMARK    5  A    between atoms: O12_24  and  C39_52 
REMARK    6  A    between atoms: O13_26  and  C40_53 
REMARK    7  A    between atoms: C34_47  and  C35_48 
REMARK    8  A    between atoms: C35_48  and  C36_49 
REMARK    9  A    between atoms: C36_49  and  C37_50 
ROOT
HETATM    1  C1  RAP A 108       1.245  12.440  11.955  1.00  5.98     0.292 C 
HETATM    2  O1  RAP A 108       2.060  12.272  13.107  1.00  9.08    -0.302 OA
HETATM    3  C2  RAP A 108      -0.143  13.075  12.028  1.00  6.42     0.171 C 
HETATM    4  O2  RAP A 108       1.673  12.029  10.879  1.00 14.08    -0.262 OA
HETATM    5  C3  RAP A 108      -0.356  14.062  10.889  1.00  5.50     0.033 C 
HETATM    6  O3  RAP A 108      -1.752  12.088  13.929  1.00 10.38    -0.264 OA
HETATM    7  C4  RAP A 108       0.382  15.380  11.078  1.00  4.49     0.004 C 
HETATM    8  O4  RAP A 108      -2.545  14.562  15.478  1.00 10.60    -0.281 OA
HETATM    9  C5  RAP A 108      -0.027  15.963  12.419  1.00  4.19     0.024 C 
HETATM   10  O5  RAP A 108       0.408  14.299  16.581  1.00 10.76    -0.332 OA
HETATM   11  C6  RAP A 108       0.286  15.011  13.532  1.00  3.25     0.105 C 
HETATM   12  N7  RAP A 108      -0.459  13.766  13.282  1.00  8.46    -0.307 N 
HETATM   13  C8  RAP A 108      -1.242  13.182  14.202  1.00 10.06     0.297 C 
HETATM   14  O8  RAP A 108      11.313  12.763  10.880  1.00 18.31    -0.293 OA
HETATM   15  C9  RAP A 108      -1.574  13.796  15.431  1.00 11.13     0.279 C 
HETATM   16  C10 RAP A 108      -0.772  13.543  16.720  1.00 16.59     0.246 C 
HETATM   17  C11 RAP A 108      -0.393  12.021  16.936  1.00 10.40     0.059 C 
HETATM   18  O11 RAP A 108       3.915  14.488  12.448  1.00  9.49    -0.296 OA
HETATM   19  C12 RAP A 108       0.662  11.860  18.055  1.00 12.17     0.008 C 
HETATM   20  C13 RAP A 108       1.822  12.821  17.835  1.00 12.80     0.030 C 
HETATM   21  C14 RAP A 108       1.380  14.256  17.564  1.00 10.37     0.121 C 
HETATM   22  C15 RAP A 108       2.543  15.051  16.996  1.00  5.94     0.064 C 
HETATM   23  C16 RAP A 108       3.688  15.364  17.951  1.00  9.79     0.136 C 
HETATM   24  C17 RAP A 108       4.795  16.126  17.254  1.00 15.52    -0.017 C 
HETATM   25  C18 RAP A 108       5.971  15.532  17.099  1.00 14.38    -0.006 C 
HETATM   26  C19 RAP A 108       7.129  16.129  16.420  1.00  9.73    -0.001 C 
HETATM   27  C20 RAP A 108       8.269  15.453  16.374  1.00 10.26    -0.000 C 
HETATM   28  C21 RAP A 108       9.429  15.961  15.621  1.00 11.40    -0.005 C 
HETATM   29  C22 RAP A 108      10.494  15.214  15.396  1.00 17.77    -0.026 C 
HETATM   30  C23 RAP A 108      11.666  15.641  14.539  1.00 15.64     0.022 C 
HETATM   31  C24 RAP A 108      11.825  14.583  13.462  1.00 14.68     0.012 C 
HETATM   32  C25 RAP A 108      10.597  14.237  12.640  1.00 11.87     0.061 C 
HETATM   33  C26 RAP A 108      10.758  12.879  11.970  1.00 11.65     0.180 C 
HETATM   34  C27 RAP A 108      10.187  11.677  12.714  1.00  8.13     0.203 C 
HETATM   35  C28 RAP A 108       8.659  11.459  12.467  1.00 10.80     0.163 C 
HETATM   36  C29 RAP A 108       7.759  12.354  13.340  1.00  9.60    -0.019 C 
HETATM   37  C30 RAP A 108       7.034  13.356  12.844  1.00  8.55    -0.025 C 
HETATM   38  C31 RAP A 108       6.062  14.309  13.557  1.00  8.43     0.079 C 
HETATM   39  C32 RAP A 108       4.623  13.887  13.261  1.00 10.69     0.157 C 
HETATM   40  C33 RAP A 108       4.136  12.642  13.994  1.00  6.51     0.095 C 
HETATM   41  C34 RAP A 108       3.332  11.723  13.098  1.00  9.62     0.132 C 
HETATM   42  C43 RAP A 108      -1.597  11.063  17.177  1.00 11.25     0.005 C 
HETATM   43  C44 RAP A 108       4.445  17.558  16.812  1.00 14.40     0.029 C 
HETATM   44  C45 RAP A 108      12.935  15.761  15.369  1.00  9.23     0.005 C 
HETATM   45  C46 RAP A 108      10.286  15.322  11.605  1.00 15.99     0.008 C 
HETATM   46  C47 RAP A 108       7.780  12.009  14.817  1.00 14.60     0.029 C 
HETATM   47  C48 RAP A 108       6.300  15.737  13.041  1.00  9.37     0.013 C 
ENDROOT
BRANCH  41  48
HETATM   48  C35 RAP A 108       3.157  10.251  13.520  1.00  9.58     0.028 C 
HETATM   49  C49 RAP A 108       3.034   9.331  12.339  1.00  8.29     0.003 C 
BRANCH  48  50
HETATM   50  C36 RAP A 108       1.977  10.060  14.471  1.00 10.31     0.003 C 
BRANCH  50  51
HETATM   51  C37 RAP A 108       2.290   9.585  15.892  1.00 22.90     0.003 C 
HETATM   52  C38 RAP A 108       2.014   8.082  16.017  1.00 14.17     0.032 C 
HETATM   53  C39 RAP A 108       2.194   7.559  17.443  1.00 34.20     0.142 C 
HETATM   54  C40 RAP A 108       3.608   7.958  17.987  1.00 38.24     0.138 C 
HETATM   55  C41 RAP A 108       3.915   9.462  17.836  1.00 16.32     0.032 C 
HETATM   56  C42 RAP A 108       3.691   9.921  16.402  1.00 14.05     0.003 C 
BRANCH  53  57
HETATM   57  O12 RAP A 108       2.073   6.161  17.372  1.00 30.82    -0.352 OA
HETATM   58  C52 RAP A 108       2.075   5.597  16.106  1.00 28.14     0.174 C 
ENDBRANCH  53  57
BRANCH  54  59
HETATM   59  O13 RAP A 108       3.697   7.600  19.364  1.00 28.84    -0.382 OA
HETATM   60  HO3 RAP A 108       3.413   6.685  19.482  1.00 13.32     0.210 HD
ENDBRANCH  54  59
ENDBRANCH  50  51
ENDBRANCH  48  50
ENDBRANCH  41  48
BRANCH  35  61
HETATM   61  O10 RAP A 108       8.405  11.717  11.080  1.00 12.16    -0.378 OA
HETATM   62  HO1 RAP A 108       7.994  12.585  10.950  1.00 13.32     0.211 HD
ENDBRANCH  35  61
BRANCH  16  63
HETATM   63  O6  RAP A 108      -1.545  13.991  17.838  1.00 14.16    -0.358 OA
HETATM   64  HO6 RAP A 108      -2.352  13.469  17.871  1.00 13.32     0.213 HD
ENDBRANCH  16  63
BRANCH  34  65
HETATM   65  O9  RAP A 108      10.838  10.519  12.263  1.00 23.09    -0.344 OA
HETATM   66  C51 RAP A 108      11.883  10.074  13.054  1.00 19.04     0.175 C 
ENDBRANCH  34  65
BRANCH  23  67
HETATM   67  O7  RAP A 108       3.176  16.138  18.991  1.00 20.17    -0.350 OA
HETATM   68  C50 RAP A 108       3.599  15.803  20.274  1.00 28.36     0.175 C 
ENDBRANCH  23  67
TORSDOF 9
ENDMDL
MODEL 9
REMARK VINA RESULT:    -6.826     15.396     20.233
REMARK INTER + INTRA:         -11.309
REMARK INTER:                  -9.024
REMARK INTRA:                  -2.285
REMARK UNBOUND:                -1.490
REMARK  9 active torsions:
REMARK  status: ('A' for Active; 'I' for Inactive)
REMARK    1  A    between atoms: O6_12  and  C10_19 
REMARK    2  A    between atoms: O7_14  and  C16_29 
REMARK    3  A    between atoms: O9_18  and  C27_40 
REMARK    4  A    between atoms: O10_20  and  C28_41 
REMARK    5  A    between atoms: O12_24  and  C39_52 
REMARK    6  A    between atoms: O13_26  and  C40_53 
REMARK    7  A    between atoms: C34_47  and  C35_48 
REMARK    8  A    between atoms: C35_48  and  C36_49 
REMARK    9  A    between atoms: C36_49  and  C37_50 
ROOT
HETATM    1  C1  RAP A 108      11.360  -3.734  29.264  1.00  5.98     0.292 C 
HETATM    2  O1  RAP A 108      11.459  -2.603  28.409  1.00  9.08    -0.302 OA
HETATM    3  C2  RAP A 108      12.581  -4.563  29.659  1.00  6.42     0.171 C 
HETATM    4  O2  RAP A 108      10.244  -4.059  29.665  1.00 14.08    -0.262 OA
HETATM    5  C3  RAP A 108      12.560  -4.899  31.142  1.00  5.50     0.033 C 
HETATM    6  O3  RAP A 108      14.158  -5.314  27.627  1.00 10.38    -0.264 OA
HETATM    7  C4  RAP A 108      12.925  -3.725  32.040  1.00  4.49     0.004 C 
HETATM    8  O4  RAP A 108      16.869  -4.274  28.472  1.00 10.60    -0.281 OA
HETATM    9  C5  RAP A 108      14.276  -3.194  31.597  1.00  4.19     0.024 C 
HETATM   10  O5  RAP A 108      15.594  -1.503  27.638  1.00 10.76    -0.332 OA
HETATM   11  C6  RAP A 108      14.241  -2.777  30.159  1.00  3.25     0.105 C 
HETATM   12  N7  RAP A 108      13.883  -3.958  29.357  1.00  8.46    -0.307 N 
HETATM   13  C8  RAP A 108      14.592  -4.365  28.293  1.00 10.06     0.297 C 
HETATM   14  O8  RAP A 108       4.795   3.883  30.493  1.00 18.31    -0.293 OA
HETATM   15  C9  RAP A 108      15.846  -3.814  27.949  1.00 11.13     0.279 C 
HETATM   16  C10 RAP A 108      15.990  -2.661  26.940  1.00 16.59     0.246 C 
HETATM   17  C11 RAP A 108      15.080  -2.831  25.656  1.00 10.40     0.059 C 
HETATM   18  O11 RAP A 108      11.122  -0.603  30.572  1.00  9.49    -0.296 OA
HETATM   19  C12 RAP A 108      15.018  -1.522  24.835  1.00 12.17     0.008 C 
HETATM   20  C13 RAP A 108      14.696  -0.341  25.740  1.00 12.80     0.030 C 
HETATM   21  C14 RAP A 108      15.565  -0.280  26.992  1.00 10.37     0.121 C 
HETATM   22  C15 RAP A 108      14.947   0.676  27.998  1.00  5.94     0.064 C 
HETATM   23  C16 RAP A 108      14.985   2.158  27.645  1.00  9.79     0.136 C 
HETATM   24  C17 RAP A 108      14.306   2.995  28.709  1.00 15.52    -0.017 C 
HETATM   25  C18 RAP A 108      13.186   3.632  28.392  1.00 14.38    -0.006 C 
HETATM   26  C19 RAP A 108      12.399   4.456  29.320  1.00  9.73    -0.001 C 
HETATM   27  C20 RAP A 108      11.323   5.086  28.869  1.00 10.26    -0.000 C 
HETATM   28  C21 RAP A 108      10.443   5.843  29.778  1.00 11.40    -0.005 C 
HETATM   29  C22 RAP A 108       9.268   6.301  29.388  1.00 17.77    -0.026 C 
HETATM   30  C23 RAP A 108       8.278   6.987  30.303  1.00 15.64     0.022 C 
HETATM   31  C24 RAP A 108       6.981   6.203  30.206  1.00 14.68     0.012 C 
HETATM   32  C25 RAP A 108       7.054   4.706  30.445  1.00 11.87     0.061 C 
HETATM   33  C26 RAP A 108       5.839   4.003  29.855  1.00 11.65     0.180 C 
HETATM   34  C27 RAP A 108       5.987   3.448  28.442  1.00  8.13     0.203 C 
HETATM   35  C28 RAP A 108       6.650   2.034  28.395  1.00 10.80     0.163 C 
HETATM   36  C29 RAP A 108       8.188   2.070  28.481  1.00  9.60    -0.019 C 
HETATM   37  C30 RAP A 108       8.866   1.637  29.543  1.00  8.55    -0.025 C 
HETATM   38  C31 RAP A 108      10.382   1.562  29.774  1.00  8.43     0.079 C 
HETATM   39  C32 RAP A 108      10.856   0.118  29.605  1.00 10.69     0.157 C 
HETATM   40  C33 RAP A 108      10.924  -0.392  28.170  1.00  6.51     0.095 C 
HETATM   41  C34 RAP A 108      10.392  -1.804  28.035  1.00  9.62     0.132 C 
HETATM   42  C43 RAP A 108      15.443  -4.037  24.739  1.00 11.25     0.005 C 
HETATM   43  C44 RAP A 108      15.016   3.048  30.073  1.00 14.40     0.029 C 
HETATM   44  C45 RAP A 108       8.064   8.436  29.889  1.00  9.23     0.005 C 
HETATM   45  C46 RAP A 108       7.206   4.378  31.932  1.00 15.99     0.008 C 
HETATM   46  C47 RAP A 108       8.867   2.657  27.258  1.00 14.60     0.029 C 
HETATM   47  C48 RAP A 108      10.692   2.046  31.199  1.00  9.37     0.013 C 
ENDROOT
BRANCH  41  48
HETATM   48  C35 RAP A 108       9.965  -2.298  26.638  1.00  9.58     0.028 C 
HETATM   49  C49 RAP A 108       8.539  -2.767  26.611  1.00  8.29     0.003 C 
BRANCH  48  50
HETATM   50  C36 RAP A 108      10.896  -3.385  26.104  1.00 10.31     0.003 C 
BRANCH  50  51
HETATM   51  C37 RAP A 108      11.589  -3.121  24.765  1.00 22.90     0.003 C 
HETATM   52  C38 RAP A 108      11.812  -4.441  24.018  1.00 14.17     0.032 C 
HETATM   53  C39 RAP A 108      12.606  -4.267  22.722  1.00 34.20     0.142 C 
HETATM   54  C40 RAP A 108      11.933  -3.173  21.824  1.00 38.24     0.138 C 
HETATM   55  C41 RAP A 108      11.670  -1.850  22.571  1.00 16.32     0.032 C 
HETATM   56  C42 RAP A 108      10.900  -2.098  23.861  1.00 14.05     0.003 C 
BRANCH  53  57
HETATM   57  O12 RAP A 108      12.588  -5.513  22.073  1.00 30.82    -0.352 OA
HETATM   58  C52 RAP A 108      13.704  -6.318  22.238  1.00 28.14     0.174 C 
ENDBRANCH  53  57
BRANCH  54  59
HETATM   59  O13 RAP A 108      12.769  -2.914  20.698  1.00 28.84    -0.382 OA
HETATM   60  HO3 RAP A 108      12.234  -2.585  19.964  1.00 13.32     0.210 HD
ENDBRANCH  54  59
ENDBRANCH  50  51
ENDBRANCH  48  50
ENDBRANCH  41  48
BRANCH  35  61
HETATM   61  O10 RAP A 108       6.120   1.271  29.487  1.00 12.16    -0.378 OA
HETATM   62  HO1 RAP A 108       6.763   1.188  30.207  1.00 13.32     0.211 HD
ENDBRANCH  35  61
BRANCH  16  63
HETATM   63  O6  RAP A 108      17.359  -2.575  26.531  1.00 14.16    -0.358 OA
HETATM   64  HO6 RAP A 108      17.468  -3.116  25.743  1.00 13.32     0.213 HD
ENDBRANCH  16  63
BRANCH  34  65
HETATM   65  O9  RAP A 108       4.711   3.314  27.876  1.00 23.09    -0.344 OA
HETATM   66  C51 RAP A 108       4.684   3.072  26.513  1.00 19.04     0.175 C 
ENDBRANCH  34  65
BRANCH  23  67
HETATM   67  O7  RAP A 108      16.322   2.537  27.541  1.00 20.17    -0.350 OA
HETATM   68  C50 RAP A 108      16.737   2.991  26.293  1.00 28.36     0.175 C 
ENDBRANCH  23  67
TORSDOF 9
ENDMDL
