@<TRIPOS>MOLECULE
*****
   69    71     1     0     0
SMALL
bcc


@<TRIPOS>ATOM
      1 C1           8.4040   -31.6130    -4.4290 c6         1 TOB      -0.065400
      2 N1           9.0760   -33.6880    -5.6520 n8         1 TOB      -0.896800
      3 O1          10.9220   -32.1580    -2.7460 os         1 TOB      -0.384600
      4 C2           8.9810   -30.5090    -5.3500 c6         1 TOB       0.152500
      5 N2           9.0180   -32.5930     1.6710 n8         1 TOB      -0.912800
      6 O2          11.6800   -33.9000    -1.3150 os         1 TOB      -0.430600
      7 C3          10.4750   -30.2150    -5.0120 c6         1 TOB       0.117100
      8 N3           7.4550   -29.8290    -0.1870 n8         1 TOB      -0.911800
      9 O3          10.4150   -37.1510    -0.3330 oh         1 TOB      -0.594800
     10 C4          11.3440   -31.5090    -5.0080 c6         1 TOB       0.144100
     11 N4          11.9330   -27.2830    -3.3590 n8         1 TOB      -0.892800
     12 O4          10.1160   -35.2550     1.7450 oh         1 TOB      -0.590800
     13 C5          10.7520   -32.6230    -4.1000 c6         1 TOB       0.081100
     14 N5           8.8020   -30.8340    -6.7780 n8         1 TOB      -0.891800
     15 O5          11.2800   -31.1810    -0.2190 oh         1 TOB      -0.610800
     16 C6           9.2480   -32.9120    -4.4070 c6         1 TOB       0.155500
     17 O6          11.4580   -32.0510    -6.3120 oh         1 TOB      -0.608800
     18 C7          10.5880   -33.0250    -1.6570 c6         1 TOB       0.293900
     19 O7          10.6350   -29.6630    -3.6780 os         1 TOB      -0.394600
     20 C8          10.2660   -32.1570    -0.4220 c6         1 TOB       0.146100
     21 O8           9.6750   -28.7590    -1.7480 os         1 TOB      -0.443600
     22 C9          10.1850   -33.0050     0.8690 c6         1 TOB       0.149500
     23 O9           8.0650   -25.5600    -1.0240 oh         1 TOB      -0.588800
     24 C10         10.1140   -34.5060     0.5320 c6         1 TOB       0.101100
     25 C11         11.3270   -34.9370    -0.3660 c6         1 TOB       0.075100
     26 C12         11.0270   -36.2040    -1.1910 c3         1 TOB       0.111400
     27 C13          9.8180   -28.5900    -3.1780 c6         1 TOB       0.281900
     28 C14         10.4640   -27.2080    -3.4590 c6         1 TOB       0.166500
     29 C15          9.9280   -26.1390    -2.4710 c6         1 TOB      -0.116400
     30 C16          8.5620   -26.5670    -1.8910 c6         1 TOB       0.112100
     31 C17          8.6980   -27.8950    -1.1070 c6         1 TOB       0.141100
     32 C18          7.3410   -28.6250    -1.0230 c3         1 TOB       0.140800
     33 H01          7.3760   -31.8420    -4.7230 hc         1 TOB       0.072700
     34 H02          8.3520   -31.2210    -3.4100 hc         1 TOB       0.072700
     35 H03          9.3500   -33.1380    -6.4620 hn         1 TOB       0.351300
     36 H04          9.6520   -34.5270    -5.6310 hn         1 TOB       0.351300
     37 H05          8.3900   -29.6060    -5.1990 h1         1 TOB       0.058700
     38 H06          8.9800   -33.1440     2.5270 hn         1 TOB       0.366800
     39 H07          9.1040   -31.6150     1.9410 hn         1 TOB       0.366800
     40 H08         10.8820   -29.4930    -5.7250 h1         1 TOB       0.043700
     41 H09          6.5760   -30.3420    -0.1850 hn         1 TOB       0.356300
     42 H10          8.1690   -30.4400    -0.5760 hn         1 TOB       0.356300
     43 H11         10.0080   -36.5870     0.3640 ho         1 TOB       0.416000
     44 H12         12.3480   -31.2550    -4.6520 h1         1 TOB       0.069700
     45 H13         12.1840   -27.5810    -2.4170 hn         1 TOB       0.367300
     46 H14         12.2710   -28.0140    -3.9820 hn         1 TOB       0.367300
     47 H15         11.0320   -35.5420     1.8910 ho         1 TOB       0.405000
     48 H16         11.3420   -33.5380    -4.2080 h1         1 TOB       0.050700
     49 H17          9.1370   -30.0630    -7.3530 hn         1 TOB       0.351800
     50 H18          9.3640   -31.6460    -7.0210 hn         1 TOB       0.351800
     51 H19         11.0870   -30.7870     0.6420 ho         1 TOB       0.447000
     52 H20          8.8350   -33.5470    -3.6230 h1         1 TOB       0.053700
     53 H21         10.7450   -32.7140    -6.3180 ho         1 TOB       0.413000
     54 H22          9.7190   -33.6380    -1.9220 h2         1 TOB       0.044700
     55 H23          9.3160   -31.6540    -0.6070 h1         1 TOB       0.062700
     56 H24         11.0880   -32.8410     1.4650 h1         1 TOB       0.042700
     57 H25          7.9190   -24.7880    -1.5850 ho         1 TOB       0.407000
     58 H26          9.1760   -34.7000     0.0020 h1         1 TOB       0.095700
     59 H27         12.2060   -35.1160     0.2600 h1         1 TOB       0.085700
     60 H28         10.3430   -35.9660    -2.0090 h1         1 TOB       0.049700
     61 H29         11.9530   -36.6130    -1.6050 h1         1 TOB       0.049700
     62 H30          8.8070   -28.6520    -3.5960 h2         1 TOB       0.040700
     63 H31         10.1970   -26.9140    -4.4780 h1         1 TOB       0.057700
     64 H32          9.8450   -25.1760    -2.9810 hc         1 TOB       0.065200
     65 H33         10.6300   -26.0080    -1.6410 hc         1 TOB       0.065200
     66 H34          7.8540   -26.6960    -2.7150 h1         1 TOB       0.036700
     67 H35          9.0580   -27.6880    -0.0950 h1         1 TOB       0.107700
     68 H36          6.5930   -27.9570    -0.5880 h1         1 TOB       0.033200
     69 H37          7.0150   -28.9120    -2.0260 h1         1 TOB       0.033200
@<TRIPOS>BOND
     1    49    14 1   
     2    50    14 1   
     3    14     4 1   
     4    53    17 1   
     5    17    10 1   
     6    40     7 1   
     7    35     2 1   
     8     2    36 1   
     9     2    16 1   
    10    10     7 1   
    11    10    44 1   
    12    10    13 1   
    13     4     7 1   
    14     4    37 1   
    15     4     1 1   
    16     7    19 1   
    17    63    28 1   
    18    33     1 1   
    19    48    13 1   
    20     1    16 1   
    21     1    34 1   
    22    16    13 1   
    23    16    52 1   
    24    13     3 1   
    25    62    27 1   
    26    19    27 1   
    27    28    11 1   
    28    28    27 1   
    29    28    29 1   
    30    11    46 1   
    31    11    45 1   
    32    27    21 1   
    33    64    29 1   
    34    66    30 1   
    35     3    18 1   
    36    29    30 1   
    37    29    65 1   
    38    69    32 1   
    39    30    31 1   
    40    30    23 1   
    41    54    18 1   
    42    60    26 1   
    43    21    31 1   
    44    18     6 1   
    45    18    20 1   
    46    57    23 1   
    47    32    31 1   
    48    32    68 1   
    49    32     8 1   
    50    31    67 1   
    51     6    25 1   
    52    26    61 1   
    53    26     9 1   
    54    26    25 1   
    55    55    20 1   
    56    41     8 1   
    57     9    43 1   
    58    20    15 1   
    59    20    22 1   
    60     8    42 1   
    61    15    51 1   
    62    25    59 1   
    63    25    24 1   
    64    58    24 1   
    65    24    22 1   
    66    24    12 1   
    67    22    56 1   
    68    22     5 1   
    69    39     5 1   
    70     5    38 1   
    71    12    47 1   
@<TRIPOS>SUBSTRUCTURE
     1 TOB         1 TEMP              0 ****  ****    0 ROOT
