MODEL 1
REMARK VINA RESULT:    -8.207      0.000      0.000
REMARK INTER + INTRA:         -12.833
REMARK INTER:                 -11.326
REMARK INTRA:                  -1.508
REMARK UNBOUND:                -1.508
REMARK  7 active torsions:
REMARK  status: ('A' for Active; 'I' for Inactive)
REMARK    1  A    between atoms: S_2  and  N_15 
REMARK    2  A    between atoms: O_4  and  C_23 
REMARK    3  A    between atoms: N_12  and  CA_19 
REMARK       I    between atoms: N_12  and  C_24 
REMARK    4  A    between atoms: N_13  and  CA_25 
REMARK       I    between atoms: N_13  and  C_27 
REMARK       I    between atoms: N_14  and  C_27 
REMARK    5  A    between atoms: CA_18  and  C_23 
REMARK    6  A    between atoms: C_24  and  CA_25 
REMARK    7  A    between atoms: CA_25  and  C_26 
ROOT
HETATM    1  CA  MEZ     1     -41.915  -5.601  40.605  1.00  0.00     0.211 C 
ENDROOT
BRANCH   1   2
HETATM    2  N   MEZ     1     -41.790  -4.188  40.875  1.00  0.00    -0.325 N 
HETATM    3  C   MEZ     1     -42.835  -3.431  41.391  1.00  0.00     0.327 C 
HETATM    4  O   MEZ     1     -43.944  -3.902  41.658  1.00  0.00    -0.247 OA
HETATM    5  N   MEZ     1     -42.515  -2.066  41.577  1.00  0.00    -0.249 N 
HETATM    6  C   MEZ     1     -43.545  -1.127  42.021  1.00  0.00     0.159 C 
HETATM    7  C   MEZ     1     -41.310  -1.373  41.326  1.00  0.00     0.342 C 
HETATM    8  C   MEZ     1     -42.829   0.175  42.375  1.00  0.00     0.167 C 
HETATM    9  N   MEZ     1     -41.536  -0.006  41.681  1.00  0.00    -0.225 N 
HETATM   10  O   MEZ     1     -40.252  -1.816  40.905  1.00  0.00    -0.245 OA
HETATM   11  H   MEZ     1     -40.896  -3.741  40.696  1.00  0.00     0.165 HD
BRANCH   9  12
HETATM   12  S   MEZ     1     -40.354   1.194  41.814  1.00  0.00     0.232 S 
HETATM   13  O   MEZ     1     -39.437   0.857  42.890  1.00  0.00    -0.206 OA
HETATM   14  O   MEZ     1     -39.854   1.536  40.493  1.00  0.00    -0.206 OA
HETATM   15  C   MEZ     1     -41.357   2.552  42.374  1.00  0.00     0.186 C 
ENDBRANCH   9  12
ENDBRANCH   1   2
BRANCH   1  16
HETATM   16  C   MEZ     1     -41.296  -5.882  39.242  1.00  0.00     0.245 C 
HETATM   17  O   MEZ     1     -41.915  -6.407  38.318  1.00  0.00    -0.271 OA
HETATM   18  N   MEZ     1     -39.975  -5.441  39.145  1.00  0.00    -0.344 N 
HETATM   19  H   MEZ     1     -39.558  -5.011  39.968  1.00  0.00     0.163 HD
BRANCH  18  20
HETATM   20  CA  MEZ     1     -39.185  -5.559  37.922  1.00  0.00     0.199 A 
HETATM   21  C   MEZ     1     -37.777  -4.945  37.911  1.00  0.00     0.160 A 
HETATM   22  S   MEZ     1     -37.090  -4.429  39.526  1.00  0.00    -0.135 SA
HETATM   23  N   MEZ     1     -37.254  -6.303  37.741  1.00  0.00    -0.219 NA
HETATM   24  C   MEZ     1     -35.569  -5.468  39.255  1.00  0.00     0.029 C 
HETATM   25  CA  MEZ     1     -36.107  -6.718  38.524  1.00  0.00     0.182 C 
HETATM   26  C   MEZ     1     -34.967  -5.833  40.613  1.00  0.00     0.029 C 
HETATM   27  C   MEZ     1     -34.567  -4.637  38.442  1.00  0.00     0.029 C 
HETATM   28  C   MEZ     1     -38.474  -6.916  37.749  1.00  0.00     0.227 A 
HETATM   29  O   MEZ     1     -38.810  -8.077  37.756  1.00  0.00    -0.277 OA
BRANCH  25  30
HETATM   30  C   MEZ     1     -35.146  -7.373  37.585  1.00  0.00     0.160 C 
HETATM   31  OXT MEZ     1     -34.156  -8.006  37.922  1.00  0.00    -0.649 OA
BRANCH  30  32
HETATM   32  O   MEZ     1     -35.519  -7.170  36.298  1.00  0.00    -0.775 OA
HETATM   33  H   MEZ     1     -36.492  -7.225  36.186  1.00  0.00     0.167 HD
ENDBRANCH  30  32
ENDBRANCH  25  30
ENDBRANCH  18  20
ENDBRANCH   1  16
BRANCH   1  34
HETATM   34  C   MEZ     1     -41.286  -6.441  41.692  1.00  0.00    -0.026 A 
HETATM   35  C   MEZ     1     -40.891  -5.849  42.891  1.00  0.00     0.010 A 
HETATM   36  C   MEZ     1     -40.310  -6.624  43.894  1.00  0.00     0.001 A 
HETATM   37  C   MEZ     1     -40.122  -7.992  43.697  1.00  0.00     0.000 A 
HETATM   38  C   MEZ     1     -40.516  -8.584  42.498  1.00  0.00     0.001 A 
HETATM   39  C   MEZ     1     -41.098  -7.809  41.495  1.00  0.00     0.010 A 
ENDBRANCH   1  34
TORSDOF 7
ENDMDL
