@<TRIPOS>MOLECULE
*****
 59 62 0 0 0
SMALL
GASTEIGER

@<TRIPOS>ATOM
      1  N         12.7488   20.0140  -17.3757 N.am    1  MEZ1       -0.2836
      2  N         10.9006   20.4593  -18.6932 N.am    1  MEZ1       -0.2016
      3  N         10.4384   21.9624  -20.2594 N.am    1  MEZ1       -0.1529
      4  N         13.1972   16.8966  -16.1847 N.am    1  MEZ1       -0.2999
      5  N         14.4621   14.5694  -15.1354 N.am    1  MEZ1       -0.2708
      6  CA        13.5720   19.2692  -16.4147 C.3     1  MEZ1        0.1261
      7  CA        13.8799   15.5883  -16.4366 C.3     1  MEZ1        0.1277
      8  CA        14.8193   14.1081  -13.7837 C.3     1  MEZ1        0.1379
      9  C         11.4800   19.7011  -17.7187 C.2     1  MEZ1        0.3109
     10  C          9.5192   20.1657  -19.0884 C.3     1  MEZ1        0.0798
     11  C         11.3890   21.5072  -19.4128 C.2     1  MEZ1        0.3320
     12  C          9.1920   21.2189  -20.1435 C.3     1  MEZ1        0.0931
     13  C          9.2147   23.2879  -22.4400 C.3     1  MEZ1        0.0739
     14  C         13.8542   17.8560  -16.8967 C.2     1  MEZ1        0.2386
     15  C         15.2635   15.6764  -15.7316 C.3     1  MEZ1        0.1005
     16  C         16.2401   14.6352  -13.4792 C.3     1  MEZ1        0.0417
     17  C         16.4429   14.8187  -11.9584 C.3     1  MEZ1       -0.0484
     18  C         17.3441   13.6954  -14.0274 C.3     1  MEZ1       -0.0484
     19  C         13.2761   14.3981  -15.7352 C.2     1  MEZ1        0.2402
     20  C         14.6161   12.6153  -13.5417 C.2     1  MEZ1        0.3269
     21  C         14.8743   19.9828  -16.0703 C.ar    1  MEZ1       -0.0184
     22  C         15.5752   20.7268  -17.0261 C.ar    1  MEZ1       -0.0563
     23  C         16.7618   21.3726  -16.6834 C.ar    1  MEZ1       -0.0614
     24  C         17.2630   21.2718  -15.3876 C.ar    1  MEZ1       -0.0617
     25  C         16.5772   20.5228  -14.4345 C.ar    1  MEZ1       -0.0614
     26  C         15.3873   19.8822  -14.7748 C.ar    1  MEZ1       -0.0563
     27  O         10.8770   18.8024  -17.1620 O.2     1  MEZ1       -0.2521
     28  O         12.4983   21.9958  -19.3111 O.2     1  MEZ1       -0.2503
     29  O         10.4764   24.4732  -20.4917 O.2     1  MEZ1       -0.1551
     30  O         11.8081   23.1196  -22.0722 O.2     1  MEZ1       -0.1551
     31  O         14.4977   17.6574  -17.9132 O.2     1  MEZ1       -0.2734
     32  O         12.2579   14.1144  -15.1364 O.2     1  MEZ1       -0.2734
     33  O         14.8268   11.8526  -14.5829 O.3     1  MEZ1       -0.4793
     34  OXT       14.3544   12.1487  -12.4530 O.2     1  MEZ1       -0.2489
     35  S         10.5969   23.3103  -21.3250 S.O2    1  MEZ1        0.0462
     36  S         16.3127   16.2313  -14.3395 S.3     1  MEZ1       -0.1273
     37  H01       13.2043   20.7669  -17.8697 H       1  MEZ1        0.1513
     38  H02       12.7233   17.1040  -15.3196 H       1  MEZ1        0.1496
     39  H03       12.9772   19.1823  -15.5003 H       1  MEZ1        0.0646
     40  H04       13.9787   15.3811  -17.5119 H       1  MEZ1        0.0622
     41  H05       14.1174   14.6027  -13.1055 H       1  MEZ1        0.0631
     42  H06        9.4593   19.1562  -19.5046 H       1  MEZ1        0.0545
     43  H07        8.3987   21.8862  -19.7967 H       1  MEZ1        0.0559
     44  H08        8.2926   23.3821  -21.8612 H       1  MEZ1        0.0482
     45  H09        9.3130   24.1313  -23.1282 H       1  MEZ1        0.0482
     46  H10        9.2256   22.3460  -22.9940 H       1  MEZ1        0.0482
     47  H11       15.8969   15.2283  -16.5123 H       1  MEZ1        0.0640
     48  H12       17.4278   15.2439  -11.7511 H       1  MEZ1        0.0244
     49  H13       15.6904   15.4955  -11.5467 H       1  MEZ1        0.0244
     50  H14       16.3670   13.8634  -11.4338 H       1  MEZ1        0.0244
     51  H15       18.3289   14.1522  -13.9043 H       1  MEZ1        0.0244
     52  H16       17.3522   12.7397  -13.4978 H       1  MEZ1        0.0244
     53  H17       17.1978   13.4954  -15.0914 H       1  MEZ1        0.0244
     54  H18       15.2038   20.8076  -18.0452 H       1  MEZ1        0.0621
     55  H19       17.2979   21.9543  -17.4295 H       1  MEZ1        0.0618
     56  H20       18.1896   21.7747  -15.1217 H       1  MEZ1        0.0618
     57  H21       16.9702   20.4383  -13.4242 H       1  MEZ1        0.0618
     58  H22       14.8611   19.2982  -14.0233 H       1  MEZ1        0.0621
     59  H23       14.6632   10.9401  -14.2865 H       1  MEZ1        0.2951
@<TRIPOS>BOND
     1    45    13    1
     2    13    46    1
     3    13    44    1
     4    13    35    1
     5    30    35    2
     6    35     3    1
     7    35    29    2
     8    43    12    1
     9     3    12    1
    10     3    11   am
    11    12    10    1
    12    11    28    2
    13    11     2   am
    14    10    42    1
    15    10     2    1
    16     2     9   am
    17    31    14    2
    18    54    22    1
    19    37     1    1
    20     9     1   am
    21     9    27    2
    22     1     6    1
    23    40     7    1
    24    55    23    1
    25    14     6    1
    26    14     4   am
    27    22    23   ar
    28    22    21   ar
    29    47    15    1
    30    23    24   ar
    31     6    21    1
    32     6    39    1
    33     7     4    1
    34     7    15    1
    35     7    19    1
    36     4    38    1
    37    21    26   ar
    38    15     5    1
    39    15    36    1
    40    19     5   am
    41    19    32    2
    42    24    56    1
    43    24    25   ar
    44     5     8    1
    45    53    18    1
    46    26    25   ar
    47    26    58    1
    48    36    16    1
    49    33    59    1
    50    33    20    1
    51    25    57    1
    52    18    52    1
    53    18    16    1
    54    18    51    1
    55     8    16    1
    56     8    20    1
    57     8    41    1
    58    16    17    1
    59    20    34    2
    60    48    17    1
    61    17    49    1
    62    17    50    1
