@<TRIPOS>MOLECULE
*****
   59    62     1     0     0
SMALL
bcc


@<TRIPOS>ATOM
      1 N           12.7490    20.0140   -17.3760 ns         1 MEZ      -0.527900
      2 N1          10.9010    20.4590   -18.6930 n          1 MEZ      -0.413600
      3 N2          10.4380    21.9620   -20.2590 n          1 MEZ      -0.478400
      4 N3          13.1970    16.8970   -16.1850 ns         1 MEZ      -0.543900
      5 N4          14.4620    14.5690   -15.1350 nj         1 MEZ      -0.398800
      6 CA          13.5720    19.2690   -16.4150 c3         1 MEZ       0.101000
      7 C1          13.8800    15.5880   -16.4370 cy         1 MEZ       0.025700
      8 C2          14.8190    14.1080   -13.7840 c5         1 MEZ       0.027700
      9 C           11.4800    19.7010   -17.7190 c          1 MEZ       0.808100
     10 C3           9.5190    20.1660   -19.0880 cc         1 MEZ      -0.039400
     11 C4          11.3890    21.5070   -19.4130 c          1 MEZ       0.820500
     12 C5           9.1920    21.2190   -20.1430 cd         1 MEZ      -0.124400
     13 C6           9.2150    23.2880   -22.4400 c3         1 MEZ      -0.374300
     14 C7          13.8540    17.8560   -16.8970 c          1 MEZ       0.641100
     15 C8          15.2640    15.6760   -15.7320 cy         1 MEZ       0.099800
     16 C9          16.2400    14.6350   -13.4790 c5         1 MEZ       0.041100
     17 C10         16.4430    14.8190   -11.9580 c3         1 MEZ      -0.097100
     18 C11         17.3440    13.6950   -14.0270 c3         1 MEZ      -0.097100
     19 C12         13.2760    14.3980   -15.7350 c          1 MEZ       0.654500
     20 C13         14.6160    12.6150   -13.5420 c          1 MEZ       0.646100
     21 C14         14.8740    19.9830   -16.0700 ca         1 MEZ      -0.120300
     22 C15         15.5750    20.7270   -17.0260 ca         1 MEZ      -0.106000
     23 C16         16.7620    21.3730   -16.6830 ca         1 MEZ      -0.129500
     24 C17         17.2630    21.2720   -15.3880 ca         1 MEZ      -0.112000
     25 C18         16.5770    20.5230   -14.4340 ca         1 MEZ      -0.129500
     26 C19         15.3870    19.8820   -14.7750 ca         1 MEZ      -0.106000
     27 O           10.8770    18.8020   -17.1620 o          1 MEZ      -0.615100
     28 O1          12.4980    21.9960   -19.3110 o          1 MEZ      -0.601500
     29 O2          10.4760    24.4730   -20.4920 o          1 MEZ      -0.621800
     30 O3          11.8080    23.1200   -22.0720 o          1 MEZ      -0.621800
     31 O4          14.4980    17.6570   -17.9130 o          1 MEZ      -0.587100
     32 O5          12.2580    14.1140   -15.1360 o          1 MEZ      -0.509500
     33 O6          14.8270    11.8530   -14.5830 oh         1 MEZ      -0.583100
     34 OXT         14.3540    12.1490   -12.4530 o          1 MEZ      -0.545000
     35 S           10.5970    23.3100   -21.3250 s6         1 MEZ       1.487600
     36 S1          16.3130    16.2310   -14.3390 ss         1 MEZ      -0.317200
     37 H01         13.2040    20.7670   -17.8700 hn         1 MEZ       0.359500
     38 H02         12.7230    17.1040   -15.3200 hn         1 MEZ       0.333500
     39 H03         12.9770    19.1820   -15.5000 h1         1 MEZ       0.107700
     40 H04         13.9790    15.3810   -17.5120 h1         1 MEZ       0.133700
     41 H05         14.1170    14.6030   -13.1050 h1         1 MEZ       0.119700
     42 H06          9.4590    19.1560   -19.5050 h4         1 MEZ       0.212000
     43 H07          8.3990    21.8860   -19.7970 h4         1 MEZ       0.187000
     44 H08          8.2930    23.3820   -21.8610 h1         1 MEZ       0.123367
     45 H09          9.3130    24.1310   -23.1280 h1         1 MEZ       0.123367
     46 H10          9.2260    22.3460   -22.9940 h1         1 MEZ       0.123367
     47 H11         15.8970    15.2280   -16.5120 h2         1 MEZ       0.128700
     48 H12         17.4280    15.2440   -11.7510 hc         1 MEZ       0.057867
     49 H13         15.6900    15.4950   -11.5470 hc         1 MEZ       0.057867
     50 H14         16.3670    13.8630   -11.4340 hc         1 MEZ       0.057867
     51 H15         18.3290    14.1520   -13.9040 hc         1 MEZ       0.057867
     52 H16         17.3520    12.7400   -13.4980 hc         1 MEZ       0.057867
     53 H17         17.1980    13.4950   -15.0910 hc         1 MEZ       0.057867
     54 H18         15.2040    20.8080   -18.0450 ha         1 MEZ       0.145500
     55 H19         17.2980    21.9540   -17.4300 ha         1 MEZ       0.139000
     56 H20         18.1900    21.7750   -15.1220 ha         1 MEZ       0.137000
     57 H21         16.9700    20.4380   -13.4240 ha         1 MEZ       0.139000
     58 H22         14.8610    19.2980   -14.0230 ha         1 MEZ       0.145500
     59 H23         14.6630    10.9400   -14.2870 ho         1 MEZ       0.447000
@<TRIPOS>BOND
     1    45    13 1   
     2    13    46 1   
     3    13    44 1   
     4    13    35 1   
     5    30    35 2   
     6    35     3 1   
     7    35    29 2   
     8    43    12 1   
     9     3    12 1   
    10     3    11 1   
    11    12    10 2   
    12    11    28 2   
    13    11     2 1   
    14    10    42 1   
    15    10     2 1   
    16     2     9 1   
    17    31    14 2   
    18    54    22 1   
    19    37     1 1   
    20     9     1 1   
    21     9    27 2   
    22     1     6 1   
    23    40     7 1   
    24    55    23 1   
    25    14     6 1   
    26    14     4 1   
    27    22    23 ar  
    28    22    21 ar  
    29    47    15 1   
    30    23    24 ar  
    31     6    21 1   
    32     6    39 1   
    33     7     4 1   
    34     7    15 1   
    35     7    19 1   
    36     4    38 1   
    37    21    26 ar  
    38    15     5 1   
    39    15    36 1   
    40    19     5 1   
    41    19    32 2   
    42    24    56 1   
    43    24    25 ar  
    44     5     8 1   
    45    53    18 1   
    46    26    25 ar  
    47    26    58 1   
    48    36    16 1   
    49    33    59 1   
    50    33    20 1   
    51    25    57 1   
    52    18    52 1   
    53    18    16 1   
    54    18    51 1   
    55     8    16 1   
    56     8    20 1   
    57     8    41 1   
    58    16    17 1   
    59    20    34 2   
    60    48    17 1   
    61    17    49 1   
    62    17    50 1   
@<TRIPOS>SUBSTRUCTURE
     1 MEZ         1 TEMP              0 ****  ****    0 ROOT
