@<TRIPOS>MOLECULE
*****
 54 57 0 0 0
SMALL
GASTEIGER

@<TRIPOS>ATOM
      1  C1       -29.2828   -2.4224    3.0729 C.3     1  CIP1       -0.0359
      2  N1       -29.7894   -1.0692    4.3166 N.3     1  CIP1       -0.2955
      3  O1       -30.1025    2.3238    7.0200 O.3     1  CIP1       -0.3910
      4  C2       -30.7421   -2.5857    3.2280 C.3     1  CIP1       -0.0359
      5  N2       -24.7756    0.1486    4.2378 N.3     1  CIP1       -0.2942
      6  O2       -31.4450   -0.4888    8.5378 O.3     1  CIP1       -0.3668
      7  C3       -29.8802   -2.5775    4.5035 C.3     1  CIP1        0.0108
      8  N3       -22.9172    0.0684    1.9472 N.3     1  CIP1       -0.3136
      9  O3       -32.3166   -1.8389    6.8730 O.3     1  CIP1       -0.3668
     10  C4       -31.0197   -0.2932    4.7608 C.3     1  CIP1        0.0093
     11  C5       -31.0250    0.1743    6.2440 C.3     1  CIP1        0.0487
     12  C6       -29.7460    1.0026    6.5904 C.3     1  CIP1        0.0681
     13  C7       -28.7663    1.0410    5.3882 C.3     1  CIP1        0.0038
     14  C8       -27.4481    1.8083    5.6941 C.3     1  CIP1       -0.0136
     15  C9       -26.3183    0.8654    6.1339 C.3     1  CIP1        0.1168
     16  C10      -25.9865   -0.1977    5.0473 C.3     1  CIP1        0.0430
     17  C11      -27.2204   -0.5738    4.1724 C.3     1  CIP1       -0.0186
     18  C12      -28.5498   -0.4518    4.9698 C.3     1  CIP1        0.0175
     19  C13      -23.7179   -0.8940    4.1243 C.3     1  CIP1        0.0119
     20  C14      -23.3587   -1.1649    2.6483 C.3     1  CIP1        0.0087
     21  C15      -23.5105    1.3323    2.4559 C.3     1  CIP1        0.0087
     22  C16      -24.8954    1.0952    3.0911 C.3     1  CIP1        0.0119
     23  C17      -31.2040   -1.0107    7.2317 C.3     1  CIP1        0.1595
     24  F1       -25.2313    1.5837    6.4766 F       1  CIP1       -0.2439
     25  H01      -29.0127   -1.5720    2.4197 H       1  CIP1        0.0281
     26  H02      -28.7424   -3.3009    2.7308 H       1  CIP1        0.0281
     27  H03      -30.2740    2.8870    6.2470 H       1  CIP1        0.2098
     28  H04      -31.1558   -3.5542    2.9617 H       1  CIP1        0.0281
     29  H05      -31.3681   -1.7874    2.8274 H       1  CIP1        0.0281
     30  H06      -31.8970    0.3750    8.4340 H       1  CIP1        0.2125
     31  H07      -29.2781   -3.2724    5.0855 H       1  CIP1        0.0463
     32  H08      -21.9023    0.1485    1.9596 H       1  CIP1        0.1220
     33  H09      -32.2230   -2.7140    7.3020 H       1  CIP1        0.2125
     34  H10      -31.9376   -0.8602    4.5915 H       1  CIP1        0.0432
     35  H11      -31.1035    0.5959    4.1304 H       1  CIP1        0.0432
     36  H12      -31.9008    0.8202    6.3557 H       1  CIP1        0.0387
     37  H13      -29.2318    0.5184    7.4260 H       1  CIP1        0.0601
     38  H14      -29.2290    1.5894    4.5632 H       1  CIP1        0.0342
     39  H15      -27.6059    2.5743    6.4563 H       1  CIP1        0.0297
     40  H16      -27.1305    2.3356    4.7920 H       1  CIP1        0.0297
     41  H17      -26.6417    0.3480    7.0415 H       1  CIP1        0.0667
     42  H18      -25.7413   -1.0922    5.6264 H       1  CIP1        0.0491
     43  H19      -27.0490   -1.5913    3.8210 H       1  CIP1        0.0296
     44  H20      -27.3111    0.0661    3.2945 H       1  CIP1        0.0296
     45  H21      -28.3857   -1.0135    5.8951 H       1  CIP1        0.0467
     46  H22      -24.0354   -1.8268    4.5973 H       1  CIP1        0.0439
     47  H23      -22.8237   -0.5379    4.6444 H       1  CIP1        0.0439
     48  H24      -22.5702   -1.9199    2.5868 H       1  CIP1        0.0437
     49  H25      -24.2474   -1.5578    2.1469 H       1  CIP1        0.0437
     50  H26      -23.5904    2.0502    1.6351 H       1  CIP1        0.0437
     51  H27      -22.8496    1.7539    3.2182 H       1  CIP1        0.0437
     52  H28      -25.3123    2.0460    3.4307 H       1  CIP1        0.0439
     53  H29      -25.5452    0.6778    2.3181 H       1  CIP1        0.0439
     54  H30      -30.3062   -1.6466    7.2660 H       1  CIP1        0.0909
@<TRIPOS>BOND
     1    50    21    1
     2     8    32    1
     3     8    21    1
     4     8    20    1
     5    21    51    1
     6    21    22    1
     7    25     1    1
     8    29     4    1
     9    53    22    1
    10    49    20    1
    11    20    48    1
    12    20    19    1
    13    22    52    1
    14    22     5    1
    15    28     4    1
    16     1    26    1
    17     1     4    1
    18     1     7    1
    19     4     7    1
    20    44    17    1
    21    43    17    1
    22    17    18    1
    23    17    16    1
    24     7     2    1
    25     7    31    1
    26    35    10    1
    27    19     5    1
    28    19    47    1
    29    19    46    1
    30     2    10    1
    31     2    18    1
    32     5    16    1
    33    34    10    1
    34    10    11    1
    35    38    13    1
    36    18    13    1
    37    18    45    1
    38    16    42    1
    39    16    15    1
    40    40    14    1
    41    13    14    1
    42    13    12    1
    43    14    15    1
    44    14    39    1
    45    27     3    1
    46    15    24    1
    47    15    41    1
    48    11    36    1
    49    11    12    1
    50    11    23    1
    51     9    23    1
    52     9    33    1
    53    12     3    1
    54    12    37    1
    55    23    54    1
    56    23     6    1
    57     6    30    1
