@<TRIPOS>MOLECULE
*****
   37    40     1     0     0
SMALL
bcc


@<TRIPOS>ATOM
      1 C1         -27.1980   -28.7380   -12.5510 c3         1 VIA      -0.061900
      2 N1         -29.1390   -24.3630   -12.8710 n2         1 VIA      -0.118000
      3 O1         -26.3930   -21.0700   -13.6960 o          1 VIA      -0.604100
      4 S1         -20.2270   -21.6390   -13.9730 sy         1 VIA       1.569800
      5 C2         -27.4700   -27.3000   -13.0180 c2         1 VIA      -0.035900
      6 N2         -28.6420   -23.1190   -13.0830 na         1 VIA      -0.001400
      7 O2         -21.0760   -20.5020   -13.7460 o          1 VIA      -0.561800
      8 C3         -28.1050   -26.4580   -11.8990 c1         1 VIA      -0.207300
      9 N3         -25.6090   -24.6280   -12.1190 n2         1 VIA      -0.206000
     10 O3         -18.8920   -21.7570   -13.4550 o          1 VIA      -0.561800
     11 C4         -28.0540   -25.0130   -12.3060 c2         1 VIA       0.215300
     12 N4         -25.2000   -22.4260   -12.9050 n2         1 VIA      -0.195000
     13 O4         -23.3840   -26.1850   -11.7860 os         1 VIA       0.029300
     14 C5         -27.3190   -23.0760   -12.7290 c2         1 VIA      -0.377300
     15 N5         -20.1690   -21.8490   -15.5940 n3         1 VIA       0.255300
     16 C6         -26.8920   -24.2300   -12.0040 c2         1 VIA       0.015700
     17 N6         -19.4570   -22.3160   -18.3660 n3         1 VIA      -0.425400
     18 C7         -24.7390   -23.6640   -12.5240 c2         1 VIA       0.147000
     19 C8         -26.2560   -22.1100   -13.0820 c          1 VIA       0.566100
     20 C9         -23.3480   -23.8870   -12.6390 c2         1 VIA      -0.072000
     21 C10        -22.7010   -25.0970   -12.3000 c2         1 VIA       0.284100
     22 C11        -21.3150   -25.2120   -12.4440 c1         1 VIA      -0.248000
     23 C12        -20.5540   -24.1570   -12.9320 c1         1 VIA       0.019000
     24 C13        -21.1740   -22.9640   -13.2850 c2         1 VIA      -0.542100
     25 C14        -22.5530   -22.8460   -13.1360 c1         1 VIA      -0.076000
     26 C15        -19.4520   -20.8190   -16.3770 c1         1 VIA      -0.122200
     27 C16        -19.7560   -20.9520   -17.8840 c1         1 VIA       0.034300
     28 C17        -20.2050   -23.3330   -17.6010 c1         1 VIA       0.034300
     29 C18        -19.9080   -23.2180   -16.0930 c1         1 VIA      -0.122200
     30 C19        -19.7330   -22.4350   -19.8050 c1         1 VIA       0.702800
     31 C20        -22.8970   -27.5360   -11.9430 c1         1 VIA      -0.322400
     32 C21        -23.3670   -28.0710   -13.3050 c1         1 VIA       0.157000
     33 C22        -29.4020   -22.0920   -13.7830 c1         1 VIA       0.480700
     34 H21        -28.1130   -27.3030   -13.9010 ha         1 VIA       0.165000
     35 H13        -26.7200   -29.3100   -13.3500 hc         1 VIA       0.062367
     36 H12        -26.5340   -28.7390   -11.6830 hc         1 VIA       0.062367
     37 H11        -28.1310   -29.2370   -12.2790 hc         1 VIA       0.062367
@<TRIPOS>BOND
     1    30    17 1   
     2    17    27 1   
     3    17    28 1   
     4    27    26 1   
     5    28    29 1   
     6    26    15 1   
     7    29    15 1   
     8    15     4 1   
     9    34     5 1   
    10     4     7 2   
    11     4    10 2   
    12     4    24 1   
    13    32    31 1   
    14     3    19 2   
    15    24    25 ar  
    16    24    23 ar  
    17    35     1 1   
    18    25    20 ar  
    19    19    12 ar  
    20    19    14 ar  
    21     5     1 1   
    22     5     8 1   
    23    12    18 ar  
    24    33     6 1   
    25    14     6 ar  
    26    14    16 ar  
    27     6     2 ar  
    28    23    22 ar  
    29    18    20 1   
    30    18     9 ar  
    31    20    21 ar  
    32     1    37 1   
    33     1    36 1   
    34    16     9 ar  
    35    16    11 ar  
    36     2    11 ar  
    37    11     8 1   
    38    22    21 ar  
    39    21    13 1   
    40    31    13 1   
@<TRIPOS>SUBSTRUCTURE
     1 VIA         1 TEMP              0 ****  ****    0 ROOT
