MODEL 1
REMARK VINA RESULT:    -7.797      0.000      0.000
REMARK INTER + INTRA:          -9.251
REMARK INTER:                  -8.937
REMARK INTRA:                  -0.314
REMARK UNBOUND:                -0.314
REMARK  4 active torsions:
REMARK  status: ('A' for Active; 'I' for Inactive)
REMARK    1  A    between atoms: C3_3  and  O5_20 
REMARK    2  A    between atoms: C6_6  and  C7_7 
REMARK    3  A    between atoms: C11_12  and  O4_19 
REMARK    4  A    between atoms: C13_14  and  O3_18 
ROOT
HETATM    1  C7  API     1      21.476 -13.415   0.076  1.00  0.00     0.090 A 
HETATM    2  C8  API     1      20.853 -13.279  -1.104  1.00  0.00     0.094 A 
HETATM    3  C9  API     1      21.527 -13.748  -2.323  1.00  0.00     0.190 A 
HETATM    4  O1  API     1      21.006 -13.643  -3.428  1.00  0.00    -0.287 OA
HETATM    5  C10 API     1      22.855 -14.350  -2.164  1.00  0.00     0.081 A 
HETATM    6  C11 API     1      23.582 -14.828  -3.259  1.00  0.00     0.085 A 
HETATM    7  C12 API     1      24.841 -15.395  -3.072  1.00  0.00     0.074 A 
HETATM    8  C13 API     1      25.362 -15.481  -1.785  1.00  0.00     0.071 A 
HETATM    9  C14 API     1      24.648 -15.008  -0.686  1.00  0.00     0.075 A 
HETATM   10  C15 API     1      23.389 -14.440  -0.880  1.00  0.00     0.095 A 
HETATM   11  O2  API     1      22.726 -13.993   0.236  1.00  0.00    -0.309 OA
ENDROOT
BRANCH   1  12
HETATM   12  C6  API     1      20.850 -12.973   1.338  1.00  0.00    -0.002 A 
HETATM   13  C1  API     1      21.556 -13.082   2.547  1.00  0.00     0.017 A 
HETATM   14  C2  API     1      20.987 -12.662   3.753  1.00  0.00     0.037 A 
HETATM   15  C3  API     1      19.706 -12.123   3.751  1.00  0.00     0.065 A 
HETATM   16  C4  API     1      18.991 -11.996   2.567  1.00  0.00     0.037 A 
HETATM   17  C5  API     1      19.561 -12.416   1.364  1.00  0.00     0.017 A 
BRANCH  15  18
HETATM   18  O5  API     1      19.110 -11.700   4.901  1.00  0.00    -0.361 OA
HETATM   19  H10 API     1      18.253 -11.299   4.679  1.00  0.00     0.217 HD
ENDBRANCH  15  18
ENDBRANCH   1  12
BRANCH   6  20
HETATM   20  O4  API     1      23.116 -14.770  -4.545  1.00  0.00    -0.360 OA
HETATM   21  H9  API     1      22.480 -15.510  -4.675  1.00  0.00     0.217 HD
ENDBRANCH   6  20
BRANCH   8  22
HETATM   22  O3  API     1      26.589 -16.027  -1.552  1.00  0.00    -0.361 OA
HETATM   23  H8  API     1      26.952 -15.647  -0.734  1.00  0.00     0.217 HD
ENDBRANCH   8  22
TORSDOF 4
ENDMDL
