MODEL 1
REMARK VINA RESULT:    -9.794      0.000      0.000
REMARK INTER + INTRA:         -14.276
REMARK INTER:                 -13.802
REMARK INTRA:                  -0.474
REMARK UNBOUND:                -0.474
REMARK  10 active torsions:
REMARK  status: ('A' for Active; 'I' for Inactive)
REMARK    1  A    between atoms: C4_4  and  C7_7 
REMARK    2  A    between atoms: C11_12  and  O11_32 
REMARK    3  A    between atoms: C12_13  and  O10_31 
REMARK    4  A    between atoms: C13_14  and  O3_18 
REMARK    5  A    between atoms: O3_18  and  C16_19 
REMARK    6  A    between atoms: C17_20  and  O9_30 
REMARK    7  A    between atoms: C18_21  and  O8_29 
REMARK    8  A    between atoms: C19_22  and  O7_28 
REMARK    9  A    between atoms: C20_23  and  C21_25 
REMARK   10  A    between atoms: C21_25  and  O6_27 
ROOT
HETATM    1  C7  BAI     1      23.456 -10.921   5.028  1.00  0.00     0.090 A 
HETATM    2  C8  BAI     1      22.169 -10.973   5.401  1.00  0.00     0.094 A 
HETATM    3  C9  BAI     1      21.203 -11.655   4.529  1.00  0.00     0.190 A 
HETATM    4  O1  BAI     1      20.014 -11.739   4.815  1.00  0.00    -0.287 OA
HETATM    5  C10 BAI     1      21.719 -12.239   3.288  1.00  0.00     0.084 A 
HETATM    6  C11 BAI     1      20.884 -12.903   2.389  1.00  0.00     0.118 A 
HETATM    7  C12 BAI     1      21.412 -13.445   1.216  1.00  0.00     0.134 A 
HETATM    8  C13 BAI     1      22.777 -13.337   0.940  1.00  0.00     0.110 A 
HETATM    9  C14 BAI     1      23.604 -12.649   1.834  1.00  0.00     0.078 A 
HETATM   10  C15 BAI     1      23.077 -12.110   3.010  1.00  0.00     0.096 A 
HETATM   11  O2  BAI     1      23.948 -11.460   3.848  1.00  0.00    -0.309 OA
ENDROOT
BRANCH   8  12
HETATM   12  O3  BAI     1      23.382 -13.788  -0.199  1.00  0.00    -0.315 OA
BRANCH  12  13
HETATM   13  C16 BAI     1      22.594 -14.696  -0.978  1.00  0.00     0.299 C 
HETATM   14  C17 BAI     1      22.523 -14.160  -2.427  1.00  0.00     0.205 C 
HETATM   15  C18 BAI     1      23.170 -15.138  -3.397  1.00  0.00     0.183 C 
HETATM   16  C19 BAI     1      24.553 -15.532  -2.886  1.00  0.00     0.189 C 
HETATM   17  C20 BAI     1      24.447 -16.175  -1.493  1.00  0.00     0.253 C 
HETATM   18  O4  BAI     1      23.143 -16.023  -0.916  1.00  0.00    -0.340 OA
BRANCH  14  19
HETATM   19  O9  BAI     1      21.167 -13.942  -2.862  1.00  0.00    -0.388 OA
HETATM   20  H16 BAI     1      20.683 -13.666  -2.055  1.00  0.00     0.210 HD
ENDBRANCH  14  19
BRANCH  15  21
HETATM   21  O8  BAI     1      23.303 -14.530  -4.695  1.00  0.00    -0.390 OA
HETATM   22  H15 BAI     1      24.211 -14.753  -4.982  1.00  0.00     0.210 HD
ENDBRANCH  15  21
BRANCH  16  23
HETATM   23  O7  BAI     1      25.131 -16.451  -3.830  1.00  0.00    -0.390 OA
HETATM   24  H14 BAI     1      25.543 -15.884  -4.514  1.00  0.00     0.210 HD
ENDBRANCH  16  23
BRANCH  17  25
HETATM   25  C21 BAI     1      25.576 -15.748  -0.543  1.00  0.00     0.172 C 
HETATM   26  O5  BAI     1      26.061 -16.410   0.365  1.00  0.00    -0.648 OA
BRANCH  25  27
HETATM   27  O6  BAI     1      26.104 -14.540  -0.822  1.00  0.00    -0.774 OA
HETATM   28  H13 BAI     1      25.341 -13.928  -0.774  1.00  0.00     0.167 HD
ENDBRANCH  25  27
ENDBRANCH  17  25
ENDBRANCH  12  13
ENDBRANCH   8  12
BRANCH   7  29
HETATM   29  O10 BAI     1      20.546 -14.061   0.348  1.00  0.00    -0.356 OA
HETATM   30  H17 BAI     1      20.818 -15.006   0.378  1.00  0.00     0.218 HD
ENDBRANCH   7  29
BRANCH   6  31
HETATM   31  O11 BAI     1      19.532 -13.055   2.582  1.00  0.00    -0.357 OA
HETATM   32  H18 BAI     1      19.398 -13.867   3.127  1.00  0.00     0.217 HD
ENDBRANCH   6  31
BRANCH   1  33
HETATM   33  C4  BAI     1      24.476 -10.243   5.853  1.00  0.00    -0.002 A 
HETATM   34  C3  BAI     1      24.156  -9.137   6.656  1.00  0.00     0.014 A 
HETATM   35  C2  BAI     1      25.134  -8.514   7.436  1.00  0.00     0.001 A 
HETATM   36  C1  BAI     1      26.442  -8.991   7.428  1.00  0.00     0.000 A 
HETATM   37  C6  BAI     1      26.773 -10.094   6.645  1.00  0.00     0.001 A 
HETATM   38  C5  BAI     1      25.796 -10.718   5.866  1.00  0.00     0.014 A 
ENDBRANCH   1  33
TORSDOF 10
ENDMDL
