MODEL 1
REMARK VINA RESULT:    -9.115      0.000      0.000
REMARK INTER + INTRA:         -10.211
REMARK INTER:                 -10.180
REMARK INTRA:                  -0.031
REMARK UNBOUND:                -0.031
REMARK  2 active torsions:
REMARK  status: ('A' for Active; 'I' for Inactive)
REMARK    1  A    between atoms: O1_2  and  C2_3 
REMARK    2  A    between atoms: C3_4  and  O4_24 
ROOT
HETATM    1  C2  BER     1      23.619 -15.581  -2.137  1.00  0.00     0.102 A 
HETATM    2  C3  BER     1      22.465 -14.872  -1.747  1.00  0.00     0.114 A 
HETATM    3  C4  BER     1      22.435 -14.173  -0.512  1.00  0.00     0.026 A 
HETATM    4  C5  BER     1      21.296 -13.500  -0.056  1.00  0.00     0.106 A 
HETATM    5  N1  BER     1      21.271 -12.836   1.123  1.00  0.00    -0.355 N 
HETATM    6  C6  BER     1      22.377 -12.773   1.918  1.00  0.00     0.046 A 
HETATM    7  C7  BER     1      23.541 -13.439   1.509  1.00  0.00     0.043 A 
HETATM    8  C8  BER     1      23.578 -14.141   0.300  1.00  0.00    -0.019 A 
HETATM    9  C9  BER     1      24.732 -14.816  -0.115  1.00  0.00     0.015 A 
HETATM   10  C10 BER     1      24.748 -15.530  -1.315  1.00  0.00     0.040 A 
HETATM   11  C11 BER     1      22.246 -12.027   3.186  1.00  0.00    -0.000 A 
HETATM   12  C12 BER     1      23.364 -11.538   3.890  1.00  0.00     0.054 A 
HETATM   13  C13 BER     1      23.167 -10.885   5.091  1.00  0.00     0.105 A 
HETATM   14  C14 BER     1      21.917 -10.696   5.620  1.00  0.00     0.105 A 
HETATM   15  C15 BER     1      20.788 -11.142   4.974  1.00  0.00     0.047 A 
HETATM   16  C16 BER     1      20.955 -11.796   3.742  1.00  0.00    -0.041 A 
HETATM   17  C17 BER     1      19.754 -12.294   2.987  1.00  0.00     0.060 C 
HETATM   18  C18 BER     1      20.017 -12.132   1.501  1.00  0.00     0.133 C 
HETATM   19  O2  BER     1      21.947 -10.038   6.807  1.00  0.00    -0.323 OA
HETATM   20  C19 BER     1      23.368  -9.833   6.972  1.00  0.00     0.352 A 
HETATM   21  O3  BER     1      24.147 -10.366   5.877  1.00  0.00    -0.323 OA
ENDROOT
BRANCH   1  22
HETATM   22  O1  BER     1      23.559 -16.309  -3.292  1.00  0.00    -0.353 OA
HETATM   23  C1  BER     1      23.145 -17.669  -3.217  1.00  0.00     0.210 C 
ENDBRANCH   1  22
BRANCH   2  24
HETATM   24  O4  BER     1      21.281 -14.827  -2.450  1.00  0.00    -0.352 OA
HETATM   25  C20 BER     1      21.161 -13.815  -3.450  1.00  0.00     0.210 C 
ENDBRANCH   2  24
TORSDOF 2
ENDMDL
