MODEL 1
REMARK VINA RESULT:    -7.884      0.000      0.000
REMARK INTER + INTRA:          -9.481
REMARK INTER:                  -9.497
REMARK INTRA:                   0.016
REMARK UNBOUND:                 0.016
REMARK  6 active torsions:
REMARK  status: ('A' for Active; 'I' for Inactive)
REMARK    1  A    between atoms: C2_2  and  O6_21 
REMARK    2  A    between atoms: C3_3  and  C10_13 
REMARK    3  A    between atoms: C6_7  and  O3_12 
REMARK    4  A    between atoms: C8_9  and  O2_11 
REMARK    5  A    between atoms: C12_15  and  O5_20 
REMARK    6  A    between atoms: C13_16  and  O4_19 
ROOT
HETATM    1  C1  CAT     1      20.480 -12.851  -1.384  1.00  0.00     0.079 C 
HETATM    2  C2  CAT     1      19.943 -12.599   0.023  1.00  0.00     0.156 C 
HETATM    3  C3  CAT     1      21.139 -12.396   0.971  1.00  0.00     0.191 C 
HETATM    4  O1  CAT     1      21.977 -13.558   1.022  1.00  0.00    -0.338 OA
HETATM    5  C4  CAT     1      22.319 -14.086  -0.194  1.00  0.00     0.081 A 
HETATM    6  C5  CAT     1      23.383 -14.989  -0.173  1.00  0.00     0.074 A 
HETATM    7  C6  CAT     1      23.809 -15.580  -1.354  1.00  0.00     0.071 A 
HETATM    8  C7  CAT     1      23.185 -15.283  -2.558  1.00  0.00     0.073 A 
HETATM    9  C8  CAT     1      22.116 -14.389  -2.571  1.00  0.00     0.077 A 
HETATM   10  C9  CAT     1      21.648 -13.793  -1.390  1.00  0.00     0.011 A 
ENDROOT
BRANCH   3  11
HETATM   11  C10 CAT     1      20.678 -12.102   2.392  1.00  0.00    -0.024 A 
HETATM   12  C11 CAT     1      19.345 -12.319   2.779  1.00  0.00     0.049 A 
HETATM   13  C12 CAT     1      18.945 -12.015   4.072  1.00  0.00     0.099 A 
HETATM   14  C13 CAT     1      19.848 -11.500   4.998  1.00  0.00     0.098 A 
HETATM   15  C14 CAT     1      21.170 -11.279   4.638  1.00  0.00     0.040 A 
HETATM   16  C15 CAT     1      21.583 -11.578   3.335  1.00  0.00     0.013 A 
BRANCH  13  17
HETATM   17  O5  CAT     1      17.644 -12.224   4.432  1.00  0.00    -0.358 OA
HETATM   18  H13 CAT     1      17.156 -12.245   3.584  1.00  0.00     0.217 HD
ENDBRANCH  13  17
BRANCH  14  19
HETATM   19  O4  CAT     1      19.384 -11.225   6.254  1.00  0.00    -0.358 OA
HETATM   20  H12 CAT     1      18.852 -10.413   6.209  1.00  0.00     0.217 HD
ENDBRANCH  14  19
ENDBRANCH   3  11
BRANCH   2  21
HETATM   21  O6  CAT     1      19.086 -11.453  -0.033  1.00  0.00    -0.392 OA
HETATM   22  H14 CAT     1      18.266 -11.688   0.439  1.00  0.00     0.210 HD
ENDBRANCH   2  21
BRANCH   9  23
HETATM   23  O2  CAT     1      21.566 -14.141  -3.799  1.00  0.00    -0.360 OA
HETATM   24  H7  CAT     1      20.819 -14.739  -3.952  1.00  0.00     0.217 HD
ENDBRANCH   9  23
BRANCH   7  25
HETATM   25  O3  CAT     1      24.856 -16.452  -1.292  1.00  0.00    -0.361 OA
HETATM   26  H8  CAT     1      24.749 -17.114  -1.994  1.00  0.00     0.217 HD
ENDBRANCH   7  25
TORSDOF 6
ENDMDL
