MODEL 1
REMARK VINA RESULT:    -8.206      0.000      0.000
REMARK INTER + INTRA:         -14.304
REMARK INTER:                 -12.523
REMARK INTRA:                  -1.781
REMARK UNBOUND:                -1.781
REMARK  10 active torsions:
REMARK  status: ('A' for Active; 'I' for Inactive)
REMARK    1  A    between atoms: O1_2  and  C2_3 
REMARK    2  A    between atoms: C3_4  and  O6_27 
REMARK    3  A    between atoms: C6_7  and  C8_9 
REMARK    4  A    between atoms: C9_10  and  C10_11 
REMARK    5  A    between atoms: C10_11  and  C11_13 
REMARK    6  A    between atoms: C11_13  and  C12_14 
REMARK    7  A    between atoms: C12_14  and  C13_16 
REMARK    8  A    between atoms: C14_17  and  C15_18 
REMARK    9  A    between atoms: C17_20  and  O5_25 
REMARK   10  A    between atoms: C18_21  and  O4_24 
ROOT
HETATM    1  C11 CUR     1      30.972  -7.368   1.742  1.00  0.00     0.165 C 
ENDROOT
BRANCH   1   2
HETATM    2  C10 CUR     1      31.964  -6.551   2.531  1.00  0.00     0.156 C 
HETATM    3  O2  CUR     1      32.770  -7.050   3.315  1.00  0.00    -0.293 OA
BRANCH   2   4
HETATM    4  C9  CUR     1      31.967  -5.066   2.392  1.00  0.00     0.051 C 
HETATM    5  C8  CUR     1      31.836  -4.406   1.232  1.00  0.00     0.015 C 
BRANCH   5   6
HETATM    6  C6  CUR     1      31.834  -2.937   1.142  1.00  0.00    -0.033 A 
HETATM    7  C5  CUR     1      32.282  -2.265  -0.003  1.00  0.00     0.014 A 
HETATM    8  C4  CUR     1      32.239  -0.872  -0.067  1.00  0.00     0.040 A 
HETATM    9  C3  CUR     1      31.737  -0.147   1.012  1.00  0.00     0.099 A 
HETATM   10  C2  CUR     1      31.268  -0.796   2.163  1.00  0.00     0.102 A 
HETATM   11  C7  CUR     1      31.315  -2.193   2.215  1.00  0.00     0.051 A 
BRANCH   9  12
HETATM   12  O6  CUR     1      31.694   1.220   0.951  1.00  0.00    -0.358 OA
HETATM   13  H20 CUR     1      31.015   1.491   0.315  1.00  0.00     0.217 HD
ENDBRANCH   9  12
BRANCH  10  14
HETATM   14  O1  CUR     1      30.791   0.014   3.160  1.00  0.00    -0.353 OA
HETATM   15  C1  CUR     1      31.675   0.348   4.219  1.00  0.00     0.210 C 
ENDBRANCH  10  14
ENDBRANCH   5   6
ENDBRANCH   2   4
ENDBRANCH   1   2
BRANCH   1  16
HETATM   16  C12 CUR     1      29.550  -7.318   2.244  1.00  0.00     0.156 C 
HETATM   17  O3  CUR     1      29.099  -8.215   2.956  1.00  0.00    -0.293 OA
BRANCH  16  18
HETATM   18  C13 CUR     1      28.685  -6.193   1.783  1.00  0.00     0.051 C 
HETATM   19  C14 CUR     1      28.379  -5.186   2.614  1.00  0.00     0.015 C 
BRANCH  19  20
HETATM   20  C15 CUR     1      27.544  -4.047   2.217  1.00  0.00    -0.033 A 
HETATM   21  C16 CUR     1      26.285  -3.817   2.799  1.00  0.00     0.051 A 
HETATM   22  C17 CUR     1      25.501  -2.737   2.387  1.00  0.00     0.102 A 
HETATM   23  C18 CUR     1      25.990  -1.896   1.381  1.00  0.00     0.099 A 
HETATM   24  C19 CUR     1      27.223  -2.116   0.782  1.00  0.00     0.040 A 
HETATM   25  C20 CUR     1      27.998  -3.200   1.197  1.00  0.00     0.014 A 
BRANCH  22  26
HETATM   26  O5  CUR     1      24.265  -2.399   2.875  1.00  0.00    -0.353 OA
HETATM   27  C21 CUR     1      24.212  -1.957   4.226  1.00  0.00     0.210 C 
ENDBRANCH  22  26
BRANCH  23  28
HETATM   28  O4  CUR     1      25.247  -0.828   0.956  1.00  0.00    -0.358 OA
HETATM   29  H16 CUR     1      25.607  -0.063   1.447  1.00  0.00     0.217 HD
ENDBRANCH  23  28
ENDBRANCH  19  20
ENDBRANCH  16  18
ENDBRANCH   1  16
TORSDOF 10
ENDMDL
