MODEL 1
REMARK VINA RESULT:    -5.598      0.000      0.000
REMARK INTER + INTRA:          -6.626
REMARK INTER:                  -6.579
REMARK INTRA:                  -0.047
REMARK UNBOUND:                -0.047
REMARK  5 active torsions:
REMARK  status: ('A' for Active; 'I' for Inactive)
REMARK    1  A    between atoms: C2_2  and  C7_10 
REMARK    2  A    between atoms: C4_4  and  O3_9 
REMARK    3  A    between atoms: C5_5  and  O2_8 
REMARK    4  A    between atoms: C6_6  and  O1_7 
REMARK    5  A    between atoms: C7_10  and  O5_12 
ROOT
HETATM    1  C1  GAL     1      24.481  13.913   6.323  1.00  0.00     0.057 A 
HETATM    2  C2  GAL     1      23.281  13.914   5.589  1.00  0.00     0.043 A 
HETATM    3  C3  GAL     1      22.932  12.808   4.799  1.00  0.00     0.057 A 
HETATM    4  C4  GAL     1      23.785  11.714   4.749  1.00  0.00     0.102 A 
HETATM    5  C5  GAL     1      24.970  11.709   5.472  1.00  0.00     0.132 A 
HETATM    6  C6  GAL     1      25.318  12.803   6.256  1.00  0.00     0.102 A 
ENDROOT
BRANCH   2   7
HETATM    7  C7  GAL     1      22.349  15.067   5.622  1.00  0.00     0.176 C 
HETATM    8  O4  GAL     1      21.257  15.094   6.155  1.00  0.00    -0.646 OA
BRANCH   7   9
HETATM    9  O5  GAL     1      22.835  16.143   4.976  1.00  0.00    -0.773 OA
HETATM   10  H6  GAL     1      22.561  15.993   4.046  1.00  0.00     0.167 HD
ENDBRANCH   7   9
ENDBRANCH   2   7
BRANCH   6  11
HETATM   11  O1  GAL     1      26.496  12.742   6.946  1.00  0.00    -0.358 OA
HETATM   12  H3  GAL     1      26.479  11.954   7.519  1.00  0.00     0.217 HD
ENDBRANCH   6  11
BRANCH   4  13
HETATM   13  O3  GAL     1      23.450  10.636   3.981  1.00  0.00    -0.358 OA
HETATM   14  H5  GAL     1      23.971   9.894   4.350  1.00  0.00     0.217 HD
ENDBRANCH   4  13
BRANCH   5  15
HETATM   15  O2  GAL     1      25.788  10.615   5.402  1.00  0.00    -0.356 OA
HETATM   16  H4  GAL     1      26.418  10.828   4.682  1.00  0.00     0.218 HD
ENDBRANCH   5  15
TORSDOF 5
ENDMDL
