MODEL 1
REMARK VINA RESULT:    -8.748      0.000      0.000
REMARK INTER + INTRA:         -11.619
REMARK INTER:                 -11.304
REMARK INTRA:                  -0.315
REMARK UNBOUND:                -0.315
REMARK  6 active torsions:
REMARK  status: ('A' for Active; 'I' for Inactive)
REMARK    1  A    between atoms: C3_3  and  C4_4 
REMARK    2  A    between atoms: C4_4  and  C5_5 
REMARK    3  A    between atoms: C5_5  and  C6_6 
REMARK    4  A    between atoms: C6_6  and  C8_8 
REMARK    5  A    between atoms: C6_6  and  O2_31 
REMARK    6  A    between atoms: C23_23  and  O1_27 
ROOT
HETATM    1  C8  GIN     1      23.138 -11.628   3.831  1.00  0.00     0.024 C 
HETATM    2  C9  GIN     1      23.285 -13.012   4.467  1.00  0.00     0.009 C 
HETATM    3  C10 GIN     1      24.215 -13.736   3.500  1.00  0.00     0.011 C 
HETATM    4  C11 GIN     1      23.828 -13.236   2.075  1.00  0.00    -0.032 C 
HETATM    5  C12 GIN     1      22.900 -11.982   2.331  1.00  0.00     0.001 C 
HETATM    6  C13 GIN     1      21.455 -12.216   1.903  1.00  0.00     0.006 C 
HETATM    7  C14 GIN     1      21.340 -12.647   0.439  1.00  0.00     0.006 C 
HETATM    8  C15 GIN     1      22.421 -13.648  -0.046  1.00  0.00     0.003 C 
HETATM    9  C16 GIN     1      23.134 -14.374   1.152  1.00  0.00    -0.032 C 
HETATM   10  C17 GIN     1      24.219 -15.345   0.598  1.00  0.00     0.011 C 
HETATM   11  C18 GIN     1      23.759 -16.252  -0.546  1.00  0.00     0.007 C 
HETATM   12  C19 GIN     1      23.191 -15.427  -1.719  1.00  0.00     0.004 C 
HETATM   13  C20 GIN     1      21.963 -14.560  -1.272  1.00  0.00    -0.035 C 
HETATM   14  C21 GIN     1      21.534 -13.622  -2.452  1.00  0.00     0.012 C 
HETATM   15  C22 GIN     1      22.102 -13.992  -3.826  1.00  0.00     0.033 C 
HETATM   16  C23 GIN     1      22.115 -15.494  -4.083  1.00  0.00     0.126 C 
HETATM   17  C24 GIN     1      23.005 -16.258  -3.052  1.00  0.00    -0.017 C 
HETATM   18  C25 GIN     1      22.477 -17.690  -2.816  1.00  0.00     0.018 C 
HETATM   19  C26 GIN     1      24.411 -16.417  -3.701  1.00  0.00     0.018 C 
HETATM   20  C27 GIN     1      20.746 -15.446  -0.907  1.00  0.00     0.016 C 
HETATM   21  C28 GIN     1      22.105 -15.242   1.947  1.00  0.00     0.016 C 
HETATM   22  C29 GIN     1      25.143 -12.677   1.449  1.00  0.00     0.016 C 
ENDROOT
BRANCH   1  23
HETATM   23  C6  GIN     1      22.156 -10.674   4.561  1.00  0.00     0.058 C 
HETATM   24  C7  GIN     1      22.297  -9.236   4.039  1.00  0.00     0.046 C 
BRANCH  23  25
HETATM   25  C5  GIN     1      22.295 -10.731   6.109  1.00  0.00     0.041 C 
BRANCH  25  26
HETATM   26  C4  GIN     1      23.286  -9.784   6.798  1.00  0.00     0.030 C 
BRANCH  26  27
HETATM   27  C3  GIN     1      24.734 -10.146   6.642  1.00  0.00    -0.025 C 
HETATM   28  C2  GIN     1      25.780  -9.301   6.565  1.00  0.00    -0.091 C 
HETATM   29  C1  GIN     1      27.187  -9.825   6.435  1.00  0.00     0.042 C 
HETATM   30  C30 GIN     1      25.677  -7.800   6.590  1.00  0.00     0.042 C 
ENDBRANCH  26  27
ENDBRANCH  25  26
ENDBRANCH  23  25
BRANCH  23  31
HETATM   31  O2  GIN     1      20.808 -11.092   4.291  1.00  0.00    -0.390 OA
HETATM   32  H49 GIN     1      20.326 -11.113   5.135  1.00  0.00     0.210 HD
ENDBRANCH  23  31
ENDBRANCH   1  23
BRANCH  16  33
HETATM   33  O1  GIN     1      20.774 -15.977  -4.094  1.00  0.00    -0.395 OA
HETATM   34  H39 GIN     1      20.487 -16.037  -5.021  1.00  0.00     0.210 HD
ENDBRANCH  16  33
TORSDOF 6
ENDMDL
