MODEL 1
REMARK VINA RESULT:    -7.933      0.000      0.000
REMARK INTER + INTRA:         -15.639
REMARK INTER:                 -13.035
REMARK INTRA:                  -2.604
REMARK UNBOUND:                -2.604
REMARK  15 active torsions:
REMARK  status: ('A' for Active; 'I' for Inactive)
REMARK    1  A    between atoms: C5_5  and  C42_56 
REMARK    2  A    between atoms: C15_16  and  O2_29 
REMARK    3  A    between atoms: O2_29  and  C28_30 
REMARK    4  A    between atoms: C29_31  and  O8_41 
REMARK    5  A    between atoms: C30_32  and  O7_40 
REMARK    6  A    between atoms: C31_33  and  O6_39 
REMARK    7  A    between atoms: C32_34  and  C33_36 
REMARK    8  A    between atoms: C33_36  and  O5_38 
REMARK    9  A    between atoms: O8_41  and  C34_42 
REMARK   10  A    between atoms: C35_43  and  O14_53 
REMARK   11  A    between atoms: C36_44  and  O13_52 
REMARK   12  A    between atoms: C37_45  and  O12_51 
REMARK   13  A    between atoms: C38_46  and  C39_48 
REMARK   14  A    between atoms: C39_48  and  O11_50 
REMARK   15  A    between atoms: C42_56  and  O16_58 
ROOT
HETATM    1  C1  GRA     1      10.482 -18.062  11.758  1.00  0.00     0.016 C 
HETATM    2  C2  GRA     1      10.544 -16.612  11.195  1.00  0.00    -0.036 C 
HETATM    3  C3  GRA     1      10.994 -15.668  12.339  1.00  0.00     0.011 C 
HETATM    4  C4  GRA     1       9.977 -15.516  13.469  1.00  0.00     0.021 C 
HETATM    5  C5  GRA     1       8.580 -15.091  12.980  1.00  0.00     0.042 C 
HETATM    6  C6  GRA     1       8.126 -16.029  11.834  1.00  0.00     0.030 C 
HETATM    7  C7  GRA     1       9.125 -16.210  10.654  1.00  0.00     0.025 C 
HETATM    8  C8  GRA     1       9.089 -15.130   9.549  1.00  0.00    -0.062 C 
HETATM    9  C9  GRA     1       7.993 -14.377   9.318  1.00  0.00     0.054 C 
HETATM   10  C10 GRA     1       7.811 -13.504   8.126  1.00  0.00     0.155 C 
HETATM   11  O1  GRA     1       6.816 -12.780   8.111  1.00  0.00    -0.293 OA
HETATM   12  C11 GRA     1       8.871 -13.522   7.013  1.00  0.00     0.077 C 
HETATM   13  C12 GRA     1       8.393 -13.018   5.582  1.00  0.00    -0.028 C 
HETATM   14  C13 GRA     1       7.902 -11.542   5.683  1.00  0.00     0.013 C 
HETATM   15  C14 GRA     1       7.689 -10.854   4.340  1.00  0.00     0.034 C 
HETATM   16  C15 GRA     1       8.930 -10.872   3.452  1.00  0.00     0.133 C 
HETATM   17  C16 GRA     1       9.481 -12.318   3.234  1.00  0.00    -0.017 C 
HETATM   18  C17 GRA     1       9.662 -13.005   4.643  1.00  0.00     0.005 C 
HETATM   19  C18 GRA     1      10.351 -14.383   4.603  1.00  0.00     0.007 C 
HETATM   20  C19 GRA     1      10.810 -14.818   5.999  1.00  0.00     0.011 C 
HETATM   21  C20 GRA     1       9.675 -14.878   7.057  1.00  0.00    -0.021 C 
HETATM   22  C21 GRA     1      10.263 -15.072   8.557  1.00  0.00    -0.012 C 
HETATM   23  C22 GRA     1      11.105 -16.371   8.681  1.00  0.00     0.015 C 
HETATM   24  C23 GRA     1      11.639 -16.624  10.089  1.00  0.00     0.011 C 
HETATM   25  C24 GRA     1      11.171 -13.874   8.977  1.00  0.00     0.021 C 
HETATM   26  C25 GRA     1       8.784 -16.105   6.686  1.00  0.00     0.017 C 
HETATM   27  C26 GRA     1      10.867 -12.176   2.544  1.00  0.00     0.018 C 
HETATM   28  C27 GRA     1       8.596 -13.123   2.263  1.00  0.00     0.018 C 
HETATM   29  C40 GRA     1       7.221 -13.877   5.054  1.00  0.00     0.016 C 
HETATM   30  C41 GRA     1       8.568 -13.613  12.563  1.00  0.00     0.026 C 
ENDROOT
BRANCH  16  31
HETATM   31  O2  GRA     1       8.603 -10.269   2.188  1.00  0.00    -0.352 OA
BRANCH  31  32
HETATM   32  C28 GRA     1       8.812  -8.844   2.171  1.00  0.00     0.293 C 
HETATM   33  C29 GRA     1       7.874  -8.186   1.141  1.00  0.00     0.211 C 
HETATM   34  C30 GRA     1       8.117  -8.818  -0.240  1.00  0.00     0.183 C 
HETATM   35  C31 GRA     1       9.588  -9.215  -0.460  1.00  0.00     0.189 C 
HETATM   36  C32 GRA     1      10.544  -8.495   0.503  1.00  0.00     0.253 C 
HETATM   37  O3  GRA     1      10.192  -8.620   1.886  1.00  0.00    -0.340 OA
BRANCH  33  38
HETATM   38  O8  GRA     1       6.484  -8.380   1.473  1.00  0.00    -0.346 OA
BRANCH  38  39
HETATM   39  C34 GRA     1       5.796  -7.148   1.738  1.00  0.00     0.293 C 
HETATM   40  C35 GRA     1       5.798  -6.967   3.262  1.00  0.00     0.204 C 
HETATM   41  C36 GRA     1       4.955  -5.747   3.638  1.00  0.00     0.183 C 
HETATM   42  C37 GRA     1       4.932  -4.674   2.538  1.00  0.00     0.189 C 
HETATM   43  C38 GRA     1       6.149  -4.761   1.603  1.00  0.00     0.253 C 
HETATM   44  O9  GRA     1       6.450  -6.067   1.091  1.00  0.00    -0.340 OA
BRANCH  40  45
HETATM   45  O14 GRA     1       5.277  -8.121   3.943  1.00  0.00    -0.388 OA
HETATM   46  H55 GRA     1       5.396  -8.859   3.310  1.00  0.00     0.210 HD
ENDBRANCH  40  45
BRANCH  41  47
HETATM   47  O13 GRA     1       5.447  -5.185   4.860  1.00  0.00    -0.390 OA
HETATM   48  H54 GRA     1       5.427  -5.911   5.516  1.00  0.00     0.210 HD
ENDBRANCH  41  47
BRANCH  42  49
HETATM   49  O12 GRA     1       3.744  -4.855   1.743  1.00  0.00    -0.390 OA
HETATM   50  H53 GRA     1       3.917  -5.596   1.133  1.00  0.00     0.210 HD
ENDBRANCH  42  49
BRANCH  43  51
HETATM   51  C39 GRA     1       7.330  -4.064   2.282  1.00  0.00     0.172 C 
HETATM   52  O10 GRA     1       7.329  -3.612   3.417  1.00  0.00    -0.648 OA
BRANCH  51  53
HETATM   53  O11 GRA     1       8.441  -3.999   1.525  1.00  0.00    -0.774 OA
HETATM   54  H52 GRA     1       8.861  -3.140   1.753  1.00  0.00     0.167 HD
ENDBRANCH  51  53
ENDBRANCH  43  51
ENDBRANCH  38  39
ENDBRANCH  33  38
BRANCH  34  55
HETATM   55  O7  GRA     1       7.714  -7.872  -1.246  1.00  0.00    -0.390 OA
HETATM   56  H46 GRA     1       7.254  -7.147  -0.783  1.00  0.00     0.210 HD
ENDBRANCH  34  55
BRANCH  35  57
HETATM   57  O6  GRA     1       9.722 -10.637  -0.293  1.00  0.00    -0.390 OA
HETATM   58  H45 GRA     1      10.010 -10.994  -1.161  1.00  0.00     0.210 HD
ENDBRANCH  35  57
BRANCH  36  59
HETATM   59  C33 GRA     1      10.712  -7.030   0.099  1.00  0.00     0.172 C 
HETATM   60  O4  GRA     1      10.524  -6.551  -1.009  1.00  0.00    -0.648 OA
BRANCH  59  61
HETATM   61  O5  GRA     1      11.085  -6.232   1.120  1.00  0.00    -0.774 OA
HETATM   62  H44 GRA     1      10.872  -6.758   1.921  1.00  0.00     0.167 HD
ENDBRANCH  59  61
ENDBRANCH  36  59
ENDBRANCH  31  32
ENDBRANCH  16  31
BRANCH   5  63
HETATM   63  C42 GRA     1       7.578 -15.231  14.129  1.00  0.00     0.148 C 
HETATM   64  O15 GRA     1       6.362 -15.280  14.034  1.00  0.00    -0.649 OA
BRANCH  63  65
HETATM   65  O16 GRA     1       8.153 -15.256  15.347  1.00  0.00    -0.776 OA
HETATM   66  H62 GRA     1       8.093 -14.327  15.655  1.00  0.00     0.167 HD
ENDBRANCH  63  65
ENDBRANCH   5  63
TORSDOF 15
ENDMDL
