MODEL 1
REMARK VINA RESULT:    -8.500      0.000      0.000
REMARK INTER + INTRA:         -12.340
REMARK INTER:                 -11.481
REMARK INTRA:                  -0.859
REMARK UNBOUND:                -0.859
REMARK  10 active torsions:
REMARK  status: ('A' for Active; 'I' for Inactive)
REMARK    1  A    between atoms: C5_5  and  O2_8 
REMARK    2  A    between atoms: C6_6  and  O1_7 
REMARK    3  A    between atoms: C10_14  and  O11_30 
REMARK    4  A    between atoms: C11_15  and  C14_19 
REMARK    5  A    between atoms: C12_16  and  O5_18 
REMARK    6  A    between atoms: C15_20  and  O10_29 
REMARK    7  A    between atoms: C16_21  and  O9_28 
REMARK    8  A    between atoms: C17_22  and  O8_27 
REMARK    9  A    between atoms: C18_23  and  C19_25 
REMARK   10  A    between atoms: C19_25  and  O7_26 
ROOT
HETATM    1  C1  MAN     1      21.877 -10.835   5.506  1.00  0.00     0.057 A 
HETATM    2  C2  MAN     1      22.574 -11.399   4.433  1.00  0.00     0.052 A 
HETATM    3  C3  MAN     1      23.964 -11.294   4.345  1.00  0.00     0.093 A 
HETATM    4  C4  MAN     1      24.672 -10.606   5.332  1.00  0.00     0.077 A 
HETATM    5  C5  MAN     1      23.977 -10.034   6.390  1.00  0.00     0.101 A 
HETATM    6  C6  MAN     1      22.594 -10.169   6.489  1.00  0.00     0.099 A 
HETATM    7  O3  MAN     1      24.705 -11.830   3.321  1.00  0.00    -0.309 OA
HETATM    8  C7  MAN     1      24.046 -12.512   2.326  1.00  0.00     0.095 A 
HETATM    9  C8  MAN     1      22.667 -12.695   2.283  1.00  0.00     0.083 A 
HETATM   10  C9  MAN     1      21.862 -12.124   3.374  1.00  0.00     0.200 A 
HETATM   11  O4  MAN     1      20.643 -12.255   3.381  1.00  0.00    -0.286 OA
HETATM   12  C10 MAN     1      22.076 -13.413   1.228  1.00  0.00     0.094 A 
HETATM   13  C11 MAN     1      22.862 -13.929   0.184  1.00  0.00     0.041 A 
HETATM   14  C12 MAN     1      24.256 -13.757   0.272  1.00  0.00     0.080 A 
HETATM   15  C13 MAN     1      24.847 -13.052   1.321  1.00  0.00     0.075 A 
ENDROOT
BRANCH  13  16
HETATM   16  C14 MAN     1      22.289 -14.689  -1.004  1.00  0.00     0.192 C 
HETATM   17  C15 MAN     1      21.920 -13.736  -2.177  1.00  0.00     0.183 C 
HETATM   18  C16 MAN     1      22.876 -13.896  -3.366  1.00  0.00     0.181 C 
HETATM   19  C17 MAN     1      22.987 -15.371  -3.805  1.00  0.00     0.180 C 
HETATM   20  C18 MAN     1      22.723 -16.344  -2.639  1.00  0.00     0.177 C 
HETATM   21  O6  MAN     1      23.152 -15.768  -1.406  1.00  0.00    -0.368 OA
BRANCH  17  22
HETATM   22  O10 MAN     1      20.588 -14.039  -2.644  1.00  0.00    -0.390 OA
HETATM   23  H17 MAN     1      20.298 -14.828  -2.145  1.00  0.00     0.210 HD
ENDBRANCH  17  22
BRANCH  18  24
HETATM   24  O9  MAN     1      24.165 -13.357  -3.062  1.00  0.00    -0.390 OA
HETATM   25  H16 MAN     1      24.511 -12.918  -3.870  1.00  0.00     0.210 HD
ENDBRANCH  18  24
BRANCH  19  26
HETATM   26  O8  MAN     1      22.058 -15.672  -4.859  1.00  0.00    -0.390 OA
HETATM   27  H15 MAN     1      22.136 -14.946  -5.513  1.00  0.00     0.210 HD
ENDBRANCH  19  26
BRANCH  20  28
HETATM   28  C19 MAN     1      23.447 -17.677  -2.874  1.00  0.00     0.198 C 
BRANCH  28  29
HETATM   29  O7  MAN     1      24.199 -17.670  -4.085  1.00  0.00    -0.398 OA
HETATM   30  H14 MAN     1      25.141 -17.789  -3.852  1.00  0.00     0.209 HD
ENDBRANCH  28  29
ENDBRANCH  20  28
ENDBRANCH  13  16
BRANCH  12  31
HETATM   31  O11 MAN     1      20.723 -13.654   1.213  1.00  0.00    -0.359 OA
HETATM   32  H18 MAN     1      20.476 -13.985   0.317  1.00  0.00     0.217 HD
ENDBRANCH  12  31
BRANCH  14  33
HETATM   33  O5  MAN     1      25.050 -14.320  -0.691  1.00  0.00    -0.360 OA
HETATM   34  H6  MAN     1      24.624 -14.212  -1.561  1.00  0.00     0.217 HD
ENDBRANCH  14  33
BRANCH   6  35
HETATM   35  O1  MAN     1      21.925  -9.670   7.568  1.00  0.00    -0.358 OA
HETATM   36  H3  MAN     1      21.642 -10.437   8.099  1.00  0.00     0.217 HD
ENDBRANCH   6  35
BRANCH   5  37
HETATM   37  O2  MAN     1      24.671  -9.310   7.315  1.00  0.00    -0.358 OA
HETATM   38  H4  MAN     1      24.320  -9.568   8.189  1.00  0.00     0.217 HD
ENDBRANCH   5  37
TORSDOF 10
ENDMDL
