MODEL 1
REMARK VINA RESULT:    -9.349      0.000      0.000
REMARK INTER + INTRA:         -16.780
REMARK INTER:                 -14.815
REMARK INTRA:                  -1.966
REMARK UNBOUND:                -1.966
REMARK  14 active torsions:
REMARK  status: ('A' for Active; 'I' for Inactive)
REMARK    1  A    between atoms: C3_3  and  O14_41 
REMARK    2  A    between atoms: C4_4  and  O13_40 
REMARK    3  A    between atoms: C5_5  and  O12_39 
REMARK    4  A    between atoms: C6_6  and  O2_8 
REMARK    5  A    between atoms: O2_8  and  C7_9 
REMARK    6  A    between atoms: C8_10  and  O11_38 
REMARK    7  A    between atoms: C9_11  and  O10_37 
REMARK    8  A    between atoms: C10_12  and  C27_35 
REMARK    9  A    between atoms: C11_14  and  O4_15 
REMARK   10  A    between atoms: O4_15  and  C12_16 
REMARK   11  A    between atoms: C14_18  and  O8_34 
REMARK   12  A    between atoms: C18_23  and  C21_27 
REMARK   13  A    between atoms: C24_30  and  O7_33 
REMARK   14  A    between atoms: C27_35  and  O9_36 
ROOT
HETATM    1  C7  NAR     1      21.174 -13.891  -0.158  1.00  0.00     0.211 C 
HETATM    2  C8  NAR     1      20.859 -14.764  -1.386  1.00  0.00     0.183 C 
HETATM    3  C9  NAR     1      21.179 -14.042  -2.711  1.00  0.00     0.180 C 
HETATM    4  C10 NAR     1      21.129 -12.513  -2.532  1.00  0.00     0.179 C 
HETATM    5  O3  NAR     1      20.094 -12.171  -1.616  1.00  0.00    -0.348 OA
HETATM    6  C11 NAR     1      20.430 -12.524  -0.261  1.00  0.00     0.298 C 
ENDROOT
BRANCH   6   7
HETATM    7  O4  NAR     1      19.217 -12.654   0.498  1.00  0.00    -0.318 OA
BRANCH   7   8
HETATM    8  C12 NAR     1      19.260 -12.309   1.819  1.00  0.00     0.077 A 
HETATM    9  C13 NAR     1      18.167 -12.273   2.687  1.00  0.00     0.074 A 
HETATM   10  C14 NAR     1      18.352 -11.920   4.023  1.00  0.00     0.085 A 
HETATM   11  C15 NAR     1      19.626 -11.600   4.501  1.00  0.00     0.076 A 
HETATM   12  C16 NAR     1      19.864 -11.274   5.919  1.00  0.00     0.167 C 
HETATM   13  C19 NAR     1      20.717 -11.627   3.633  1.00  0.00     0.089 A 
HETATM   14  O5  NAR     1      18.919 -11.233   6.704  1.00  0.00    -0.292 OA
HETATM   15  C17 NAR     1      21.291 -11.073   6.340  1.00  0.00     0.121 C 
HETATM   16  C18 NAR     1      22.049 -10.464   5.168  1.00  0.00     0.169 C 
HETATM   17  O6  NAR     1      21.996 -11.326   4.018  1.00  0.00    -0.340 OA
HETATM   18  C20 NAR     1      20.536 -12.002   2.303  1.00  0.00     0.074 A 
BRANCH  10  19
HETATM   19  O8  NAR     1      17.238 -11.919   4.819  1.00  0.00    -0.360 OA
HETATM   20  H24 NAR     1      17.277 -11.128   5.404  1.00  0.00     0.217 HD
ENDBRANCH  10  19
BRANCH  16  21
HETATM   21  C21 NAR     1      23.501 -10.227   5.541  1.00  0.00    -0.028 A 
HETATM   22  C22 NAR     1      24.508 -11.139   5.179  1.00  0.00     0.012 A 
HETATM   23  C23 NAR     1      25.837 -10.920   5.550  1.00  0.00     0.037 A 
HETATM   24  C24 NAR     1      26.163  -9.788   6.289  1.00  0.00     0.065 A 
HETATM   25  C25 NAR     1      25.184  -8.877   6.663  1.00  0.00     0.037 A 
HETATM   26  C26 NAR     1      23.855  -9.095   6.292  1.00  0.00     0.012 A 
BRANCH  24  27
HETATM   27  O7  NAR     1      27.446  -9.534   6.673  1.00  0.00    -0.361 OA
HETATM   28  H23 NAR     1      28.047  -9.885   5.995  1.00  0.00     0.217 HD
ENDBRANCH  24  27
ENDBRANCH  16  21
ENDBRANCH   7   8
ENDBRANCH   6   7
BRANCH   1  29
HETATM   29  O2  NAR     1      22.600 -13.694  -0.107  1.00  0.00    -0.346 OA
BRANCH  29  30
HETATM   30  C6  NAR     1      23.295 -14.834   0.408  1.00  0.00     0.292 C 
HETATM   31  C5  NAR     1      24.691 -14.859  -0.252  1.00  0.00     0.204 C 
HETATM   32  C4  NAR     1      25.674 -15.717   0.557  1.00  0.00     0.183 C 
HETATM   33  C3  NAR     1      24.931 -16.721   1.440  1.00  0.00     0.178 C 
HETATM   34  C2  NAR     1      23.980 -15.965   2.392  1.00  0.00     0.152 C 
HETATM   35  C1  NAR     1      22.845 -16.857   2.884  1.00  0.00     0.042 C 
HETATM   36  O1  NAR     1      23.424 -14.769   1.820  1.00  0.00    -0.351 OA
BRANCH  31  37
HETATM   37  O12 NAR     1      24.597 -15.373  -1.596  1.00  0.00    -0.388 OA
HETATM   38  H30 NAR     1      25.136 -16.190  -1.605  1.00  0.00     0.210 HD
ENDBRANCH  31  37
BRANCH  32  39
HETATM   39  O13 NAR     1      26.577 -16.428  -0.305  1.00  0.00    -0.390 OA
HETATM   40  H31 NAR     1      26.107 -16.497  -1.166  1.00  0.00     0.210 HD
ENDBRANCH  32  39
BRANCH  33  41
HETATM   41  O14 NAR     1      25.865 -17.507   2.184  1.00  0.00    -0.390 OA
HETATM   42  H32 NAR     1      25.466 -17.601   3.075  1.00  0.00     0.210 HD
ENDBRANCH  33  41
ENDBRANCH  29  30
ENDBRANCH   1  29
BRANCH   2  43
HETATM   43  O11 NAR     1      19.479 -15.167  -1.360  1.00  0.00    -0.390 OA
HETATM   44  H29 NAR     1      19.333 -15.795  -2.094  1.00  0.00     0.210 HD
ENDBRANCH   2  43
BRANCH   4  45
HETATM   45  C27 NAR     1      20.873 -11.817  -3.874  1.00  0.00     0.198 C 
BRANCH  45  46
HETATM   46  O9  NAR     1      22.092 -11.668  -4.598  1.00  0.00    -0.398 OA
HETATM   47  H27 NAR     1      22.478 -10.817  -4.318  1.00  0.00     0.209 HD
ENDBRANCH  45  46
ENDBRANCH   4  45
BRANCH   3  48
HETATM   48  O10 NAR     1      22.467 -14.429  -3.205  1.00  0.00    -0.390 OA
HETATM   49  H28 NAR     1      22.300 -14.870  -4.065  1.00  0.00     0.210 HD
ENDBRANCH   3  48
TORSDOF 14
ENDMDL
