MODEL 1
REMARK VINA RESULT:    -8.529      0.000      0.000
REMARK INTER + INTRA:         -10.621
REMARK INTER:                 -10.274
REMARK INTRA:                  -0.346
REMARK UNBOUND:                -0.346
REMARK  5 active torsions:
REMARK  status: ('A' for Active; 'I' for Inactive)
REMARK    1  A    between atoms: C3_3  and  O3_17 
REMARK    2  A    between atoms: C6_6  and  C7_7 
REMARK    3  A    between atoms: C8_8  and  C9_9 
REMARK    4  A    between atoms: C11_11  and  O2_16 
REMARK    5  A    between atoms: C13_13  and  O1_15 
ROOT
HETATM    1  C9  RES     1      31.780  -6.542   2.522  1.00  0.00    -0.031 A 
HETATM    2  C10 RES     1      32.411  -7.091   3.646  1.00  0.00     0.048 A 
HETATM    3  C11 RES     1      32.574  -8.470   3.755  1.00  0.00     0.069 A 
HETATM    4  C12 RES     1      32.126  -9.322   2.752  1.00  0.00     0.073 A 
HETATM    5  C13 RES     1      31.517  -8.775   1.630  1.00  0.00     0.069 A 
HETATM    6  C14 RES     1      31.344  -7.398   1.502  1.00  0.00     0.048 A 
ENDROOT
BRANCH   1   7
HETATM    7  C8  RES     1      31.653  -5.080   2.426  1.00  0.00     0.012 C 
HETATM    8  C7  RES     1      32.083  -4.360   1.377  1.00  0.00     0.012 C 
BRANCH   8   9
HETATM    9  C6  RES     1      31.954  -2.899   1.280  1.00  0.00    -0.036 A 
HETATM   10  C1  RES     1      32.462  -2.175   0.192  1.00  0.00     0.014 A 
HETATM   11  C2  RES     1      32.347  -0.782   0.147  1.00  0.00     0.037 A 
HETATM   12  C3  RES     1      31.731  -0.111   1.198  1.00  0.00     0.065 A 
HETATM   13  C4  RES     1      31.235  -0.810   2.291  1.00  0.00     0.037 A 
HETATM   14  C5  RES     1      31.351  -2.201   2.335  1.00  0.00     0.014 A 
BRANCH  12  15
HETATM   15  O3  RES     1      31.598   1.245   1.196  1.00  0.00    -0.361 OA
HETATM   16  H12 RES     1      31.388   1.534   0.292  1.00  0.00     0.217 HD
ENDBRANCH  12  15
ENDBRANCH   8   9
ENDBRANCH   1   7
BRANCH   3  17
HETATM   17  O2  RES     1      33.186  -8.951   4.875  1.00  0.00    -0.361 OA
HETATM   18  H11 RES     1      32.790  -9.811   5.096  1.00  0.00     0.217 HD
ENDBRANCH   3  17
BRANCH   5  19
HETATM   19  O1  RES     1      31.100  -9.637   0.655  1.00  0.00    -0.361 OA
HETATM   20  H10 RES     1      31.298  -9.245  -0.211  1.00  0.00     0.217 HD
ENDBRANCH   5  19
TORSDOF 5
ENDMDL
