MODEL 1
REMARK VINA RESULT:    -8.049      0.000      0.000
REMARK INTER + INTRA:          -9.933
REMARK INTER:                  -9.696
REMARK INTRA:                  -0.236
REMARK UNBOUND:                -0.236
REMARK  5 active torsions:
REMARK  status: ('A' for Active; 'I' for Inactive)
REMARK    1  A    between atoms: O1_2  and  C2_3 
REMARK    2  A    between atoms: C4_5  and  O6_22 
REMARK    3  A    between atoms: C8_10  and  C11_15 
REMARK    4  A    between atoms: C9_11  and  O4_14 
REMARK    5  A    between atoms: C14_18  and  O5_21 
ROOT
HETATM    1  C2  RHA     1      23.842 -10.271   5.862  1.00  0.00     0.073 A 
HETATM    2  C3  RHA     1      22.751 -10.152   6.727  1.00  0.00     0.074 A 
HETATM    3  C4  RHA     1      21.492 -10.597   6.324  1.00  0.00     0.085 A 
HETATM    4  C5  RHA     1      21.315 -11.162   5.059  1.00  0.00     0.084 A 
HETATM    5  C6  RHA     1      22.397 -11.283   4.196  1.00  0.00     0.096 A 
HETATM    6  C7  RHA     1      23.657 -10.839   4.596  1.00  0.00     0.075 A 
HETATM    7  O2  RHA     1      22.296 -11.830   2.942  1.00  0.00    -0.306 OA
HETATM    8  C8  RHA     1      21.055 -12.272   2.500  1.00  0.00     0.123 A 
HETATM    9  C9  RHA     1      19.931 -12.219   3.240  1.00  0.00     0.152 A 
HETATM   10  C10 RHA     1      20.010 -11.641   4.602  1.00  0.00     0.223 A 
HETATM   11  O3  RHA     1      19.009 -11.576   5.312  1.00  0.00    -0.284 OA
ENDROOT
BRANCH   8  12
HETATM   12  C11 RHA     1      21.100 -12.836   1.134  1.00  0.00     0.001 A 
HETATM   13  C12 RHA     1      21.904 -13.958   0.867  1.00  0.00     0.017 A 
HETATM   14  C13 RHA     1      21.984 -14.494  -0.422  1.00  0.00     0.037 A 
HETATM   15  C14 RHA     1      21.263 -13.904  -1.453  1.00  0.00     0.065 A 
HETATM   16  C15 RHA     1      20.469 -12.790  -1.216  1.00  0.00     0.037 A 
HETATM   17  C16 RHA     1      20.390 -12.255   0.072  1.00  0.00     0.017 A 
BRANCH  15  18
HETATM   18  O5  RHA     1      21.312 -14.392  -2.724  1.00  0.00    -0.361 OA
HETATM   19  H11 RHA     1      22.239 -14.570  -2.953  1.00  0.00     0.217 HD
ENDBRANCH  15  18
ENDBRANCH   8  12
BRANCH   9  20
HETATM   20  O4  RHA     1      18.698 -12.682   2.823  1.00  0.00    -0.355 OA
HETATM   21  H6  RHA     1      18.076 -12.459   3.548  1.00  0.00     0.218 HD
ENDBRANCH   9  20
BRANCH   3  22
HETATM   22  O6  RHA     1      20.471 -10.450   7.224  1.00  0.00    -0.360 OA
HETATM   23  H12 RHA     1      19.950 -11.284   7.244  1.00  0.00     0.217 HD
ENDBRANCH   3  22
BRANCH   1  24
HETATM   24  O1  RHA     1      25.124  -9.878   6.128  1.00  0.00    -0.356 OA
HETATM   25  C1  RHA     1      25.294  -8.848   7.096  1.00  0.00     0.210 C 
ENDBRANCH   1  24
TORSDOF 5
ENDMDL
