MODEL 1
REMARK VINA RESULT:   -10.002      0.000      0.000
REMARK INTER + INTRA:         -17.881
REMARK INTER:                 -16.433
REMARK INTRA:                  -1.448
REMARK UNBOUND:                -1.448
REMARK  16 active torsions:
REMARK  status: ('A' for Active; 'I' for Inactive)
REMARK    1  A    between atoms: C3_3  and  O16_43 
REMARK    2  A    between atoms: C4_4  and  O15_42 
REMARK    3  A    between atoms: C5_5  and  O14_41 
REMARK    4  A    between atoms: C6_6  and  O2_8 
REMARK    5  A    between atoms: O2_8  and  C7_9 
REMARK    6  A    between atoms: C7_9  and  C8_10 
REMARK    7  A    between atoms: C9_11  and  O13_40 
REMARK    8  A    between atoms: C10_12  and  O12_39 
REMARK    9  A    between atoms: C11_13  and  O11_38 
REMARK   10  A    between atoms: C12_14  and  O4_16 
REMARK   11  A    between atoms: O4_16  and  C13_17 
REMARK   12  A    between atoms: C14_18  and  C22_30 
REMARK   13  A    between atoms: C17_22  and  O8_29 
REMARK   14  A    between atoms: C19_24  and  O7_28 
REMARK   15  A    between atoms: C24_32  and  O10_37 
REMARK   16  A    between atoms: C25_33  and  O9_36 
ROOT
HETATM    1  C8  RUT     1      20.547 -13.633   0.275  1.00  0.00     0.180 C 
HETATM    2  C9  RUT     1      19.738 -12.506   0.937  1.00  0.00     0.180 C 
HETATM    3  C10 RUT     1      19.502 -12.852   2.411  1.00  0.00     0.183 C 
HETATM    4  C11 RUT     1      20.722 -13.493   3.085  1.00  0.00     0.205 C 
HETATM    5  C12 RUT     1      21.992 -13.381   2.216  1.00  0.00     0.298 C 
HETATM    6  O3  RUT     1      21.830 -13.852   0.872  1.00  0.00    -0.348 OA
ENDROOT
BRANCH   5   7
HETATM    7  O4  RUT     1      22.436 -12.018   2.194  1.00  0.00    -0.311 OA
BRANCH   7   8
HETATM    8  C13 RUT     1      23.439 -11.766   3.114  1.00  0.00     0.157 A 
HETATM    9  C14 RUT     1      24.619 -12.416   3.096  1.00  0.00     0.124 A 
HETATM   10  O5  RUT     1      25.653 -12.203   3.991  1.00  0.00    -0.306 OA
HETATM   11  C15 RUT     1      25.515 -11.214   4.930  1.00  0.00     0.096 A 
HETATM   12  C16 RUT     1      26.592 -11.004   5.790  1.00  0.00     0.075 A 
HETATM   13  C20 RUT     1      24.367 -10.437   5.047  1.00  0.00     0.084 A 
HETATM   14  C17 RUT     1      26.509 -10.013   6.764  1.00  0.00     0.071 A 
HETATM   15  C18 RUT     1      25.367  -9.228   6.893  1.00  0.00     0.074 A 
HETATM   16  C19 RUT     1      24.295  -9.443   6.030  1.00  0.00     0.085 A 
HETATM   17  C21 RUT     1      23.251 -10.696   4.129  1.00  0.00     0.223 A 
HETATM   18  O6  RUT     1      22.209 -10.050   4.221  1.00  0.00    -0.284 OA
BRANCH   9  19
HETATM   19  C22 RUT     1      24.916 -13.474   2.116  1.00  0.00     0.004 A 
HETATM   20  C23 RUT     1      24.839 -14.822   2.502  1.00  0.00     0.053 A 
HETATM   21  C24 RUT     1      25.143 -15.817   1.579  1.00  0.00     0.099 A 
HETATM   22  C25 RUT     1      25.530 -15.483   0.284  1.00  0.00     0.098 A 
HETATM   23  C26 RUT     1      25.613 -14.157  -0.113  1.00  0.00     0.040 A 
HETATM   24  C27 RUT     1      25.304 -13.151   0.804  1.00  0.00     0.017 A 
BRANCH  21  25
HETATM   25  O10 RUT     1      25.077 -17.145   1.899  1.00  0.00    -0.358 OA
HETATM   26  H24 RUT     1      25.777 -17.341   2.544  1.00  0.00     0.217 HD
ENDBRANCH  21  25
BRANCH  22  27
HETATM   27  O9  RUT     1      25.837 -16.465  -0.613  1.00  0.00    -0.358 OA
HETATM   28  H23 RUT     1      26.521 -17.002  -0.167  1.00  0.00     0.217 HD
ENDBRANCH  22  27
ENDBRANCH   9  19
BRANCH  14  29
HETATM   29  O8  RUT     1      27.584  -9.842   7.585  1.00  0.00    -0.361 OA
HETATM   30  H19 RUT     1      27.888 -10.713   7.894  1.00  0.00     0.217 HD
ENDBRANCH  14  29
BRANCH  16  31
HETATM   31  O7  RUT     1      23.199  -8.641   6.204  1.00  0.00    -0.360 OA
HETATM   32  H18 RUT     1      23.379  -8.027   6.951  1.00  0.00     0.217 HD
ENDBRANCH  16  31
ENDBRANCH   7   8
ENDBRANCH   5   7
BRANCH   4  33
HETATM   33  O11 RUT     1      20.426 -14.883   3.329  1.00  0.00    -0.388 OA
HETATM   34  H25 RUT     1      21.026 -15.179   4.037  1.00  0.00     0.210 HD
ENDBRANCH   4  33
BRANCH   3  35
HETATM   35  O12 RUT     1      19.110 -11.653   3.103  1.00  0.00    -0.390 OA
HETATM   36  H26 RUT     1      18.275 -11.884   3.555  1.00  0.00     0.210 HD
ENDBRANCH   3  35
BRANCH   1  37
HETATM   37  C7  RUT     1      20.771 -13.367  -1.223  1.00  0.00     0.205 C 
BRANCH  37  38
HETATM   38  O2  RUT     1      22.044 -13.883  -1.632  1.00  0.00    -0.356 OA
BRANCH  38  39
HETATM   39  C6  RUT     1      22.152 -13.929  -3.061  1.00  0.00     0.291 C 
HETATM   40  C5  RUT     1      23.571 -14.386  -3.456  1.00  0.00     0.204 C 
HETATM   41  C4  RUT     1      23.759 -15.873  -3.164  1.00  0.00     0.183 C 
HETATM   42  C3  RUT     1      22.629 -16.700  -3.786  1.00  0.00     0.178 C 
HETATM   43  C2  RUT     1      21.279 -16.157  -3.295  1.00  0.00     0.152 C 
HETATM   44  C1  RUT     1      20.110 -16.897  -3.936  1.00  0.00     0.042 C 
HETATM   45  O1  RUT     1      21.136 -14.770  -3.616  1.00  0.00    -0.351 OA
BRANCH  40  46
HETATM   46  O14 RUT     1      23.818 -14.154  -4.855  1.00  0.00    -0.388 OA
HETATM   47  H28 RUT     1      23.570 -13.217  -4.995  1.00  0.00     0.210 HD
ENDBRANCH  40  46
BRANCH  41  48
HETATM   48  O15 RUT     1      25.018 -16.305  -3.712  1.00  0.00    -0.390 OA
HETATM   49  H29 RUT     1      24.799 -16.614  -4.615  1.00  0.00     0.210 HD
ENDBRANCH  41  48
BRANCH  42  50
HETATM   50  O16 RUT     1      22.840 -18.068  -3.415  1.00  0.00    -0.390 OA
HETATM   51  H30 RUT     1      23.250 -18.515  -4.176  1.00  0.00     0.210 HD
ENDBRANCH  42  50
ENDBRANCH  38  39
ENDBRANCH  37  38
ENDBRANCH   1  37
BRANCH   2  52
HETATM   52  O13 RUT     1      18.449 -12.292   0.341  1.00  0.00    -0.390 OA
HETATM   53  H27 RUT     1      18.130 -13.163   0.029  1.00  0.00     0.210 HD
ENDBRANCH   2  52
TORSDOF 16
ENDMDL
