MODEL 1
REMARK VINA RESULT:   -10.082      0.000      0.000
REMARK INTER + INTRA:         -14.564
REMARK INTER:                 -13.914
REMARK INTRA:                  -0.650
REMARK UNBOUND:                -0.650
REMARK  9 active torsions:
REMARK  status: ('A' for Active; 'I' for Inactive)
REMARK    1  A    between atoms: O1_2  and  C2_3 
REMARK    2  A    between atoms: C3_4  and  O10_35 
REMARK    3  A    between atoms: C6_7  and  C8_9 
REMARK    4  A    between atoms: C9_10  and  C25_33 
REMARK    5  A    between atoms: C13_16  and  C16_19 
REMARK    6  A    between atoms: C17_20  and  O8_32 
REMARK    7  A    between atoms: C20_24  and  O7_31 
REMARK    8  A    between atoms: C22_26  and  O6_30 
REMARK    9  A    between atoms: C25_33  and  O9_34 
ROOT
HETATM    1  C8  SIL     1      22.470  -9.723   5.300  1.00  0.00     0.193 C 
HETATM    2  C9  SIL     1      23.970  -9.875   5.611  1.00  0.00     0.186 C 
HETATM    3  O2  SIL     1      24.388 -11.241   5.378  1.00  0.00    -0.338 OA
HETATM    4  C10 SIL     1      23.910 -11.725   4.189  1.00  0.00     0.102 A 
HETATM    5  C11 SIL     1      22.874 -11.121   3.478  1.00  0.00     0.103 A 
HETATM    6  O3  SIL     1      22.223  -9.996   3.907  1.00  0.00    -0.336 OA
HETATM    7  C12 SIL     1      22.460 -11.653   2.256  1.00  0.00     0.049 A 
HETATM    8  C13 SIL     1      23.053 -12.821   1.747  1.00  0.00    -0.023 A 
HETATM    9  C14 SIL     1      24.083 -13.428   2.485  1.00  0.00     0.013 A 
HETATM   10  C15 SIL     1      24.505 -12.885   3.702  1.00  0.00     0.040 A 
ENDROOT
BRANCH   8  11
HETATM   11  C16 SIL     1      22.626 -13.413   0.411  1.00  0.00     0.198 C 
HETATM   12  C17 SIL     1      21.292 -14.159   0.536  1.00  0.00     0.227 C 
HETATM   13  C18 SIL     1      20.972 -14.805  -0.799  1.00  0.00     0.196 C 
HETATM   14  O4  SIL     1      19.817 -15.003  -1.180  1.00  0.00    -0.289 OA
HETATM   15  C19 SIL     1      22.106 -15.237  -1.629  1.00  0.00     0.079 A 
HETATM   16  C20 SIL     1      21.911 -15.937  -2.827  1.00  0.00     0.085 A 
HETATM   17  C24 SIL     1      23.400 -14.960  -1.188  1.00  0.00     0.089 A 
HETATM   18  C21 SIL     1      23.002 -16.374  -3.573  1.00  0.00     0.074 A 
HETATM   19  C22 SIL     1      24.288 -16.113  -3.110  1.00  0.00     0.071 A 
HETATM   20  C23 SIL     1      24.494 -15.414  -1.924  1.00  0.00     0.074 A 
HETATM   21  O5  SIL     1      23.682 -14.284  -0.035  1.00  0.00    -0.337 OA
BRANCH  12  22
HETATM   22  O8  SIL     1      20.218 -13.272   0.864  1.00  0.00    -0.385 OA
HETATM   23  H18 SIL     1      20.368 -12.456   0.345  1.00  0.00     0.210 HD
ENDBRANCH  12  22
BRANCH  16  24
HETATM   24  O7  SIL     1      20.670 -16.235  -3.324  1.00  0.00    -0.360 OA
HETATM   25  H17 SIL     1      20.780 -16.823  -4.103  1.00  0.00     0.217 HD
ENDBRANCH  16  24
BRANCH  19  26
HETATM   26  O6  SIL     1      25.387 -16.529  -3.800  1.00  0.00    -0.361 OA
HETATM   27  H16 SIL     1      26.132 -16.622  -3.181  1.00  0.00     0.217 HD
ENDBRANCH  19  26
ENDBRANCH   8  11
BRANCH   1  28
HETATM   28  C6  SIL     1      21.929  -8.333   5.578  1.00  0.00    -0.024 A 
HETATM   29  C5  SIL     1      20.866  -8.138   6.472  1.00  0.00     0.013 A 
HETATM   30  C4  SIL     1      20.361  -6.859   6.705  1.00  0.00     0.040 A 
HETATM   31  C3  SIL     1      20.922  -5.766   6.048  1.00  0.00     0.099 A 
HETATM   32  C2  SIL     1      21.991  -5.928   5.157  1.00  0.00     0.101 A 
HETATM   33  C7  SIL     1      22.488  -7.216   4.928  1.00  0.00     0.049 A 
BRANCH  31  34
HETATM   34  O10 SIL     1      20.427  -4.509   6.276  1.00  0.00    -0.358 OA
HETATM   35  H22 SIL     1      20.455  -4.325   7.227  1.00  0.00     0.217 HD
ENDBRANCH  31  34
BRANCH  32  36
HETATM   36  O1  SIL     1      22.466  -4.785   4.568  1.00  0.00    -0.353 OA
HETATM   37  C1  SIL     1      23.748  -4.323   4.967  1.00  0.00     0.210 C 
ENDBRANCH  32  36
ENDBRANCH   1  28
BRANCH   2  38
HETATM   38  C25 SIL     1      24.301  -9.576   7.077  1.00  0.00     0.199 C 
BRANCH  38  39
HETATM   39  O9  SIL     1      25.369  -8.628   7.157  1.00  0.00    -0.398 OA
HETATM   40  H21 SIL     1      25.856  -8.836   7.977  1.00  0.00     0.209 HD
ENDBRANCH  38  39
ENDBRANCH   2  38
TORSDOF 9
ENDMDL
