MODEL 1
REMARK VINA RESULT:    -8.563      0.000      0.000
REMARK INTER + INTRA:         -13.114
REMARK INTER:                 -11.817
REMARK INTRA:                  -1.298
REMARK UNBOUND:                -1.298
REMARK  10 active torsions:
REMARK  status: ('A' for Active; 'I' for Inactive)
REMARK    1  A    between atoms: C3_3  and  O10_31 
REMARK    2  A    between atoms: C6_6  and  C7_7 
REMARK    3  A    between atoms: C12_14  and  C16_20 
REMARK    4  A    between atoms: C13_15  and  O4_19 
REMARK    5  A    between atoms: C15_17  and  O3_18 
REMARK    6  A    between atoms: C17_21  and  O9_30 
REMARK    7  A    between atoms: C18_22  and  O8_29 
REMARK    8  A    between atoms: C19_23  and  O7_28 
REMARK    9  A    between atoms: C20_24  and  C21_26 
REMARK   10  A    between atoms: C21_26  and  O6_27 
ROOT
HETATM    1  C7  VIT     1      21.241 -12.492   1.955  1.00  0.00     0.090 A 
HETATM    2  C8  VIT     1      22.002 -11.914   2.894  1.00  0.00     0.094 A 
HETATM    3  C9  VIT     1      23.451 -12.132   2.860  1.00  0.00     0.190 A 
HETATM    4  O1  VIT     1      24.192 -11.633   3.701  1.00  0.00    -0.287 OA
HETATM    5  C10 VIT     1      23.981 -12.980   1.784  1.00  0.00     0.082 A 
HETATM    6  C11 VIT     1      23.090 -13.512   0.848  1.00  0.00     0.104 A 
HETATM    7  O2  VIT     1      21.737 -13.270   0.924  1.00  0.00    -0.308 OA
HETATM    8  C12 VIT     1      23.557 -14.326  -0.206  1.00  0.00     0.041 A 
HETATM    9  C13 VIT     1      24.936 -14.595  -0.263  1.00  0.00     0.080 A 
HETATM   10  C14 VIT     1      25.827 -14.068   0.673  1.00  0.00     0.074 A 
HETATM   11  C15 VIT     1      25.347 -13.257   1.694  1.00  0.00     0.085 A 
ENDROOT
BRANCH   8  12
HETATM   12  C16 VIT     1      22.614 -14.904  -1.251  1.00  0.00     0.192 C 
HETATM   13  C17 VIT     1      22.160 -13.855  -2.304  1.00  0.00     0.183 C 
HETATM   14  C18 VIT     1      21.870 -14.514  -3.674  1.00  0.00     0.181 C 
HETATM   15  C19 VIT     1      21.334 -15.936  -3.466  1.00  0.00     0.180 C 
HETATM   16  C20 VIT     1      22.350 -16.801  -2.675  1.00  0.00     0.177 C 
HETATM   17  O5  VIT     1      23.262 -16.018  -1.883  1.00  0.00    -0.368 OA
BRANCH  13  18
HETATM   18  O9  VIT     1      20.972 -13.187  -1.842  1.00  0.00    -0.390 OA
HETATM   19  H19 VIT     1      20.769 -13.572  -0.964  1.00  0.00     0.210 HD
ENDBRANCH  13  18
BRANCH  14  20
HETATM   20  O8  VIT     1      23.025 -14.553  -4.513  1.00  0.00    -0.390 OA
HETATM   21  H18 VIT     1      22.911 -15.289  -5.141  1.00  0.00     0.210 HD
ENDBRANCH  14  20
BRANCH  15  22
HETATM   22  O7  VIT     1      20.100 -15.833  -2.724  1.00  0.00    -0.390 OA
HETATM   23  H17 VIT     1      19.885 -14.882  -2.686  1.00  0.00     0.210 HD
ENDBRANCH  15  22
BRANCH  16  24
HETATM   24  C21 VIT     1      23.189 -17.683  -3.604  1.00  0.00     0.198 C 
BRANCH  24  25
HETATM   25  O6  VIT     1      24.491 -17.131  -3.777  1.00  0.00    -0.398 OA
HETATM   26  H16 VIT     1      25.007 -17.389  -2.992  1.00  0.00     0.209 HD
ENDBRANCH  24  25
ENDBRANCH  16  24
ENDBRANCH   8  12
BRANCH   9  27
HETATM   27  O4  VIT     1      25.420 -15.392  -1.264  1.00  0.00    -0.360 OA
HETATM   28  H8  VIT     1      24.894 -16.208  -1.305  1.00  0.00     0.217 HD
ENDBRANCH   9  27
BRANCH  11  29
HETATM   29  O3  VIT     1      26.272 -12.770   2.577  1.00  0.00    -0.360 OA
HETATM   30  H7  VIT     1      26.792 -13.528   2.926  1.00  0.00     0.217 HD
ENDBRANCH  11  29
BRANCH   1  31
HETATM   31  C6  VIT     1      19.774 -12.321   1.929  1.00  0.00    -0.002 A 
HETATM   32  C1  VIT     1      19.096 -11.910   0.769  1.00  0.00     0.017 A 
HETATM   33  C2  VIT     1      17.708 -11.737   0.771  1.00  0.00     0.037 A 
HETATM   34  C3  VIT     1      16.992 -11.967   1.940  1.00  0.00     0.065 A 
HETATM   35  C4  VIT     1      17.640 -12.363   3.101  1.00  0.00     0.037 A 
HETATM   36  C5  VIT     1      19.026 -12.538   3.096  1.00  0.00     0.017 A 
BRANCH  34  37
HETATM   37  O10 VIT     1      15.639 -11.808   1.988  1.00  0.00    -0.361 OA
HETATM   38  H20 VIT     1      15.235 -12.352   1.293  1.00  0.00     0.217 HD
ENDBRANCH  34  37
ENDBRANCH   1  31
TORSDOF 10
ENDMDL
