MODEL 1
REMARK VINA RESULT:    -7.384      0.000      0.000
REMARK INTER + INTRA:         -15.573
REMARK INTER:                 -12.996
REMARK INTRA:                  -2.577
REMARK UNBOUND:                -2.577
REMARK  17 active torsions:
REMARK  status: ('A' for Active; 'I' for Inactive)
REMARK    1  A    between atoms: C3_3  and  C21_38 
REMARK    2  A    between atoms: C3_3  and  O12_40 
REMARK    3  A    between atoms: C4_4  and  O6_25 
REMARK    4  A    between atoms: C5_5  and  O2_7 
REMARK    5  A    between atoms: O2_7  and  C6_8 
REMARK    6  A    between atoms: C7_9  and  N4_21 
REMARK    7  A    between atoms: C8_10  and  O5_20 
REMARK    8  A    between atoms: C9_11  and  N1_16 
REMARK    9  A    between atoms: C10_12  and  O4_15 
REMARK   10  A    between atoms: C11_13  and  O3_14 
REMARK       I    between atoms: N1_16  and  C12_17 
REMARK       I    between atoms: C12_17  and  N2_18 
REMARK       I    between atoms: C12_17  and  N3_19 
REMARK       I    between atoms: N4_21  and  C13_22 
REMARK       I    between atoms: C13_22  and  N5_23 
REMARK       I    between atoms: C13_22  and  N6_24 
REMARK   11  A    between atoms: O6_25  and  C14_26 
REMARK   12  A    between atoms: C15_27  and  N7_36 
REMARK   13  A    between atoms: C16_28  and  O10_35 
REMARK   14  A    between atoms: C17_29  and  O9_34 
REMARK   15  A    between atoms: C18_30  and  C19_32 
REMARK   16  A    between atoms: C19_32  and  O8_33 
REMARK   17  A    between atoms: C21_38  and  O11_39 
ROOT
HETATM    1  C6  STM     1      29.675 -55.618 -10.486  1.00  0.00     0.192 C 
HETATM    2  C7  STM     1      29.104 -54.560 -11.470  1.00  0.00     0.287 C 
HETATM    3  C8  STM     1      30.090 -54.277 -12.637  1.00  0.00     0.190 C 
HETATM    4  C9  STM     1      30.461 -55.602 -13.368  1.00  0.00     0.287 C 
HETATM    5  C10 STM     1      31.001 -56.675 -12.390  1.00  0.00     0.185 C 
HETATM    6  C11 STM     1      29.994 -56.929 -11.248  1.00  0.00     0.180 C 
ENDROOT
BRANCH   1   7
HETATM    7  O2  STM     1      28.701 -55.855  -9.477  1.00  0.00    -0.348 OA
BRANCH   7   8
HETATM    8  C5  STM     1      29.272 -56.245  -8.234  1.00  0.00     0.293 C 
HETATM    9  C4  STM     1      30.352 -55.240  -7.828  1.00  0.00     0.218 C 
HETATM   10  C3  STM     1      29.592 -54.228  -6.963  1.00  0.00     0.135 C 
HETATM   11  C2  STM     1      28.239 -54.948  -6.686  1.00  0.00     0.160 C 
HETATM   12  C1  STM     1      27.876 -55.083  -5.203  1.00  0.00     0.043 C 
HETATM   13  O1  STM     1      28.275 -56.237  -7.247  1.00  0.00    -0.350 OA
BRANCH   9  14
HETATM   14  O6  STM     1      31.356 -55.897  -7.062  1.00  0.00    -0.346 OA
BRANCH  14  15
HETATM   15  C14 STM     1      31.198 -57.314  -7.068  1.00  0.00     0.297 C 
HETATM   16  C15 STM     1      32.553 -58.002  -7.414  1.00  0.00     0.305 C 
HETATM   17  C16 STM     1      32.543 -59.516  -7.058  1.00  0.00     0.187 C 
HETATM   18  C17 STM     1      31.101 -60.018  -6.811  1.00  0.00     0.180 C 
HETATM   19  C18 STM     1      30.364 -59.107  -5.771  1.00  0.00     0.179 C 
HETATM   20  O7  STM     1      30.760 -57.732  -5.791  1.00  0.00    -0.349 OA
BRANCH  16  21
HETATM   21  N7  STM     1      33.742 -57.325  -6.829  1.00  0.00     0.091 N 
HETATM   22  C20 STM     1      34.303 -57.974  -5.631  1.00  0.00     0.307 C 
HETATM   23  H34 STM     1      33.482 -56.347  -6.573  1.00  0.00     0.316 HD
ENDBRANCH  16  21
BRANCH  17  24
HETATM   24  O10 STM     1      33.131 -60.243  -8.110  1.00  0.00    -0.391 OA
HETATM   25  H33 STM     1      33.350 -59.592  -8.825  1.00  0.00     0.210 HD
ENDBRANCH  17  24
BRANCH  18  26
HETATM   26  O9  STM     1      31.088 -61.360  -6.388  1.00  0.00    -0.390 OA
HETATM   27  H32 STM     1      30.810 -61.382  -5.440  1.00  0.00     0.210 HD
ENDBRANCH  18  26
BRANCH  19  28
HETATM   28  C19 STM     1      28.835 -59.213  -5.921  1.00  0.00     0.198 C 
BRANCH  28  29
HETATM   29  O8  STM     1      28.410 -60.525  -5.666  1.00  0.00    -0.398 OA
HETATM   30  H31 STM     1      29.202 -61.119  -5.773  1.00  0.00     0.209 HD
ENDBRANCH  28  29
ENDBRANCH  19  28
ENDBRANCH  14  15
ENDBRANCH   9  14
BRANCH  10  31
HETATM   31  C21 STM     1      29.376 -52.888  -7.719  1.00  0.00     0.207 C 
BRANCH  31  32
HETATM   32  O11 STM     1      28.038 -52.474  -7.651  1.00  0.00    -0.398 OA
HETATM   33  H6  STM     1      27.675 -52.862  -6.808  1.00  0.00     0.209 HD
ENDBRANCH  31  32
ENDBRANCH  10  31
BRANCH  10  34
HETATM   34  O12 STM     1      30.328 -53.974  -5.781  1.00  0.00    -0.382 OA
HETATM   35  H39 STM     1      30.655 -53.042  -5.811  1.00  0.00     0.210 HD
ENDBRANCH  10  34
ENDBRANCH   7   8
ENDBRANCH   1   7
BRANCH   2  36
HETATM   36  N4  STM     1      28.632 -53.335 -10.774  1.00  0.00     0.156 N 
HETATM   37  C13 STM     1      27.178 -53.092 -10.767  1.00  0.00     0.674 C 
HETATM   38  N5  STM     1      26.933 -51.673 -10.485  1.00  0.00     0.142 N 
HETATM   39  N6  STM     1      26.518 -53.925  -9.752  1.00  0.00     0.142 N 
HETATM   40  H20 STM     1      25.919 -51.468 -10.663  1.00  0.00     0.318 HD
HETATM   41  H21 STM     1      27.477 -51.098 -11.170  1.00  0.00     0.318 HD
HETATM   42  H22 STM     1      25.612 -54.288 -10.152  1.00  0.00     0.318 HD
HETATM   43  H23 STM     1      26.270 -53.358  -8.903  1.00  0.00     0.318 HD
HETATM   44  H3  STM     1      28.985 -53.334  -9.787  1.00  0.00     0.321 HD
ENDBRANCH   2  36
BRANCH   6  45
HETATM   45  O3  STM     1      30.544 -57.868 -10.360  1.00  0.00    -0.390 OA
HETATM   46  H13 STM     1      30.328 -58.764 -10.723  1.00  0.00     0.210 HD
ENDBRANCH   6  45
BRANCH   3  47
HETATM   47  O5  STM     1      29.526 -53.360 -13.544  1.00  0.00    -0.391 OA
HETATM   48  H19 STM     1      30.231 -52.709 -13.804  1.00  0.00     0.210 HD
ENDBRANCH   3  47
BRANCH   5  49
HETATM   49  O4  STM     1      31.222 -57.886 -13.069  1.00  0.00    -0.391 OA
HETATM   50  H14 STM     1      32.084 -57.795 -13.560  1.00  0.00     0.210 HD
ENDBRANCH   5  49
BRANCH   4  51
HETATM   51  N1  STM     1      31.357 -55.435 -14.540  1.00  0.00     0.156 N 
HETATM   52  C12 STM     1      32.708 -54.855 -14.361  1.00  0.00     0.674 C 
HETATM   53  N2  STM     1      33.413 -55.457 -13.230  1.00  0.00     0.142 N 
HETATM   54  N3  STM     1      32.646 -53.403 -14.204  1.00  0.00     0.142 N 
HETATM   55  H15 STM     1      34.358 -55.006 -13.148  1.00  0.00     0.318 HD
HETATM   56  H16 STM     1      33.608 -56.461 -13.461  1.00  0.00     0.318 HD
HETATM   57  H17 STM     1      33.621 -53.033 -14.182  1.00  0.00     0.318 HD
HETATM   58  H18 STM     1      32.216 -53.000 -15.068  1.00  0.00     0.318 HD
HETATM   59  H1  STM     1      30.854 -54.912 -15.292  1.00  0.00     0.321 HD
ENDBRANCH   4  51
TORSDOF 17
ENDMDL
