REMARK  8 active torsions:
REMARK  status: ('A' for Active; 'I' for Inactive)
REMARK    1  A    between atoms: PA_1  and  O5'_5 
REMARK    2  A    between atoms: PA_1  and  O3A_24 
REMARK    3  A    between atoms: PB_2  and  N3B_23 
REMARK    4  A    between atoms: PB_2  and  O3A_24 
REMARK    5  A    between atoms: PG_3  and  N3B_23 
REMARK    6  A    between atoms: C5'_4  and  O5'_5 
REMARK    7  A    between atoms: C5'_4  and  C4'_6 
REMARK    8  A    between atoms: C1'_12  and  N9_32 
ROOT
HETATM    1  C4' GNP A 200     -11.188  18.029 -17.286  1.00 11.60     0.181 C 
HETATM    2  O4' GNP A 200     -10.898  16.595 -17.288  1.00 10.96    -0.331 OA
HETATM    3  C3' GNP A 200     -11.894  18.312 -15.951  1.00 12.08     0.216 C 
HETATM    4  O3' GNP A 200     -13.318  18.132 -16.154  1.00 14.40    -0.218 OA
HETATM    5  C2' GNP A 200     -11.345  17.175 -15.033  1.00 12.17     0.234 C 
HETATM    6  O2' GNP A 200     -12.250  16.729 -13.985  1.00 13.60    -0.216 OA
HETATM    7  C1' GNP A 200     -11.254  15.990 -16.016  1.00 11.60     0.241 C 
ENDROOT
BRANCH   1   8
HETATM    8  C5' GNP A 200      -9.969  18.830 -17.501  1.00 10.62     0.187 C 
BRANCH   8   9
HETATM    9  O5' GNP A 200      -8.989  18.607 -16.461  1.00  9.72    -0.268 OA
BRANCH   9  10
HETATM   10  PA  GNP A 200      -7.878  19.620 -16.188  1.00 10.32     0.418 P 
HETATM   11  O1A GNP A 200      -6.814  18.996 -15.280  1.00  9.87    -0.624 OA
HETATM   12  O2A GNP A 200      -8.456  20.967 -15.805  1.00 11.09    -0.624 OA
BRANCH  10  13
HETATM   13  O3A GNP A 200      -7.217  19.816 -17.729  1.00  9.21    -0.185 OA
BRANCH  13  14
HETATM   14  PB  GNP A 200      -5.999  20.686 -18.143  1.00  8.42     0.401 P 
HETATM   15  O1B GNP A 200      -5.285  19.812 -19.095  1.00  8.14    -0.628 OA
HETATM   16  O2B GNP A 200      -5.287  21.145 -16.997  1.00  8.71    -0.628 OA
BRANCH  14  17
HETATM   17  N3B GNP A 200      -6.718  22.021 -19.049  1.00  9.58    -0.091 NA
BRANCH  17  18
HETATM   18  PG  GNP A 200      -5.953  23.409 -19.360  1.00  9.51     0.404 P 
HETATM   19  O1G GNP A 200      -4.837  23.136 -20.398  1.00 10.72    -0.621 OA
HETATM   20  O2G GNP A 200      -5.475  23.983 -18.163  1.00 10.01    -0.621 OA
HETATM   21  O3G GNP A 200      -7.076  24.278 -19.991  1.00 11.72    -0.621 OA
ENDBRANCH  17  18
ENDBRANCH  14  17
ENDBRANCH  13  14
ENDBRANCH  10  13
ENDBRANCH   9  10
ENDBRANCH   8   9
ENDBRANCH   1   8
BRANCH   7  22
HETATM   22  N9  GNP A 200     -10.237  14.917 -15.726  1.00  9.54    -0.269 N 
HETATM   23  C4  GNP A 200     -10.472  13.631 -15.645  1.00  9.54     0.187 A 
HETATM   24  N3  GNP A 200     -11.584  12.948 -15.822  1.00 10.76    -0.039 NA
HETATM   25  C5  GNP A 200      -9.199  13.144 -15.260  1.00  8.26     0.162 A 
HETATM   26  C2  GNP A 200     -11.574  11.719 -15.698  1.00  9.86     0.772 A 
HETATM   27  N1  GNP A 200     -10.328  10.997 -15.330  1.00 10.22    -0.029 NA
HETATM   28  N2  GNP A 200     -12.517  10.843 -15.829  1.00 11.49     0.062 N 
HETATM   29  C6  GNP A 200      -9.238  11.732 -15.132  1.00 10.19     0.251 A 
HETATM   30  O6  GNP A 200      -8.106  11.074 -14.764  1.00 11.17    -0.167 OA
HETATM   31  N7  GNP A 200      -8.351  14.112 -15.164  1.00  8.86    -0.219 NA
HETATM   32  C8  GNP A 200      -8.913  15.309 -15.429  1.00 11.92     0.182 A 
ENDBRANCH   7  22
TORSDOF 8
