MODEL 1
REMARK VINA RESULT:    -8.828      0.000      0.000
REMARK INTER + INTRA:         -13.948
REMARK INTER:                 -12.956
REMARK INTRA:                  -0.992
REMARK UNBOUND:                -0.992
REMARK  8 active torsions:
REMARK  status: ('A' for Active; 'I' for Inactive)
REMARK    1  A    between atoms: PA_1  and  O5'_5 
REMARK    2  A    between atoms: PA_1  and  O3A_24 
REMARK    3  A    between atoms: PB_2  and  N3B_23 
REMARK    4  A    between atoms: PB_2  and  O3A_24 
REMARK    5  A    between atoms: PG_3  and  N3B_23 
REMARK    6  A    between atoms: C5'_4  and  O5'_5 
REMARK    7  A    between atoms: C5'_4  and  C4'_6 
REMARK    8  A    between atoms: C1'_12  and  N9_32 
ROOT
HETATM    1  C4' GNP A 200       3.049  48.291  15.308  1.00 11.60     0.181 C 
HETATM    2  O4' GNP A 200       2.098  48.534  16.394  1.00 10.96    -0.331 OA
HETATM    3  C3' GNP A 200       3.298  49.659  14.655  1.00 12.08     0.216 C 
HETATM    4  O3' GNP A 200       2.311  49.838  13.608  1.00 14.40    -0.218 OA
HETATM    5  C2' GNP A 200       3.008  50.648  15.827  1.00 12.17     0.234 C 
HETATM    6  O2' GNP A 200       2.493  51.950  15.430  1.00 13.60    -0.216 OA
HETATM    7  C1' GNP A 200       1.833  49.954  16.545  1.00 11.60     0.241 C 
ENDROOT
BRANCH   1   8
HETATM    8  C5' GNP A 200       4.272  47.628  15.796  1.00 10.62     0.187 C 
BRANCH   8   9
HETATM    9  O5' GNP A 200       5.240  47.439  14.738  1.00  9.72    -0.268 OA
BRANCH   9  10
HETATM   10  PA  GNP A 200       5.858  46.069  14.463  1.00 10.32     0.418 P 
HETATM   11  O1A GNP A 200       7.242  45.981  15.114  1.00  9.87    -0.624 OA
HETATM   12  O2A GNP A 200       5.721  45.697  13.001  1.00 11.09    -0.624 OA
BRANCH  10  13
HETATM   13  O3A GNP A 200       4.806  45.052  15.306  1.00  9.21    -0.185 OA
BRANCH  13  14
HETATM   14  PB  GNP A 200       4.582  43.529  15.102  1.00  8.42     0.401 P 
HETATM   15  O1B GNP A 200       5.951  43.029  14.863  1.00  8.14    -0.628 OA
HETATM   16  O2B GNP A 200       3.600  43.288  14.098  1.00  8.71    -0.628 OA
BRANCH  14  17
HETATM   17  N3B GNP A 200       4.054  42.961  16.689  1.00  9.58    -0.091 NA
BRANCH  17  18
HETATM   18  PG  GNP A 200       4.468  43.671  18.080  1.00  9.51     0.404 P 
HETATM   19  O1G GNP A 200       5.819  44.401  17.878  1.00 10.72    -0.621 OA
HETATM   20  O2G GNP A 200       4.495  42.722  19.124  1.00 10.01    -0.621 OA
HETATM   21  O3G GNP A 200       3.324  44.701  18.285  1.00 11.72    -0.621 OA
ENDBRANCH  17  18
ENDBRANCH  14  17
ENDBRANCH  13  14
ENDBRANCH  10  13
ENDBRANCH   9  10
ENDBRANCH   8   9
ENDBRANCH   1   8
BRANCH   7  22
HETATM   22  N9  GNP A 200       1.654  50.225  18.016  1.00  9.54    -0.269 N 
HETATM   23  C4  GNP A 200       0.620  49.884  18.745  1.00  9.54     0.187 A 
HETATM   24  N3  GNP A 200      -0.469  49.213  18.430  1.00 10.76    -0.039 NA
HETATM   25  C5  GNP A 200       0.954  50.475  19.988  1.00  8.26     0.162 A 
HETATM   26  C2  GNP A 200      -1.326  48.998  19.293  1.00  9.86     0.772 A 
HETATM   27  N1  GNP A 200      -1.158  49.502  20.681  1.00 10.22    -0.029 NA
HETATM   28  N2  GNP A 200      -2.454  48.367  19.233  1.00 11.49     0.062 N 
HETATM   29  C6  GNP A 200      -0.057  50.199  20.943  1.00 10.19     0.251 A 
HETATM   30  O6  GNP A 200       0.081  50.688  22.205  1.00 11.17    -0.167 OA
HETATM   31  N7  GNP A 200       2.096  51.071  19.916  1.00  8.86    -0.219 NA
HETATM   32  C8  GNP A 200       2.637  50.989  18.683  1.00 11.92     0.182 A 
ENDBRANCH   7  22
TORSDOF 8
ENDMDL
MODEL 2
REMARK VINA RESULT:    -8.634      2.642      4.982
REMARK INTER + INTRA:         -13.664
REMARK INTER:                 -13.287
REMARK INTRA:                  -0.377
REMARK UNBOUND:                -0.992
REMARK  8 active torsions:
REMARK  status: ('A' for Active; 'I' for Inactive)
REMARK    1  A    between atoms: PA_1  and  O5'_5 
REMARK    2  A    between atoms: PA_1  and  O3A_24 
REMARK    3  A    between atoms: PB_2  and  N3B_23 
REMARK    4  A    between atoms: PB_2  and  O3A_24 
REMARK    5  A    between atoms: PG_3  and  N3B_23 
REMARK    6  A    between atoms: C5'_4  and  O5'_5 
REMARK    7  A    between atoms: C5'_4  and  C4'_6 
REMARK    8  A    between atoms: C1'_12  and  N9_32 
ROOT
HETATM    1  C4' GNP A 200       3.367  47.813  17.775  1.00 11.60     0.181 C 
HETATM    2  O4' GNP A 200       3.492  48.706  16.623  1.00 10.96    -0.331 OA
HETATM    3  C3' GNP A 200       2.265  48.419  18.658  1.00 12.08     0.216 C 
HETATM    4  O3' GNP A 200       2.893  49.347  19.578  1.00 14.40    -0.218 OA
HETATM    5  C2' GNP A 200       1.402  49.208  17.623  1.00 12.17     0.234 C 
HETATM    6  O2' GNP A 200       0.734  50.391  18.143  1.00 13.60    -0.216 OA
HETATM    7  C1' GNP A 200       2.477  49.745  16.657  1.00 11.60     0.241 C 
ENDROOT
BRANCH   1   8
HETATM    8  C5' GNP A 200       3.105  46.423  17.359  1.00 10.62     0.187 C 
BRANCH   8   9
HETATM    9  O5' GNP A 200       3.611  45.470  18.321  1.00  9.72    -0.268 OA
BRANCH   9  10
HETATM   10  PA  GNP A 200       4.323  44.194  17.874  1.00 10.32     0.418 P 
HETATM   11  O1A GNP A 200       3.861  43.011  18.730  1.00  9.87    -0.624 OA
HETATM   12  O2A GNP A 200       5.811  44.432  17.713  1.00 11.09    -0.624 OA
BRANCH  10  13
HETATM   13  O3A GNP A 200       3.710  43.997  16.314  1.00  9.21    -0.185 OA
BRANCH  13  14
HETATM   14  PB  GNP A 200       4.500  43.750  15.000  1.00  8.42     0.401 P 
HETATM   15  O1B GNP A 200       3.489  43.121  14.126  1.00  8.14    -0.628 OA
HETATM   16  O2B GNP A 200       5.702  43.028  15.255  1.00  8.71    -0.628 OA
BRANCH  14  17
HETATM   17  N3B GNP A 200       4.827  45.375  14.388  1.00  9.58    -0.091 NA
BRANCH  17  18
HETATM   18  PG  GNP A 200       6.301  45.908  14.000  1.00  9.51     0.404 P 
HETATM   19  O1G GNP A 200       6.161  47.281  13.298  1.00 10.72    -0.621 OA
HETATM   20  O2G GNP A 200       6.978  44.947  13.219  1.00 10.01    -0.621 OA
HETATM   21  O3G GNP A 200       6.974  46.078  15.390  1.00 11.72    -0.621 OA
ENDBRANCH  17  18
ENDBRANCH  14  17
ENDBRANCH  13  14
ENDBRANCH  10  13
ENDBRANCH   9  10
ENDBRANCH   8   9
ENDBRANCH   1   8
BRANCH   7  22
HETATM   22  N9  GNP A 200       2.064  50.020  15.234  1.00  9.54    -0.269 N 
HETATM   23  C4  GNP A 200       1.074  50.787  14.851  1.00  9.54     0.187 A 
HETATM   24  N3  GNP A 200       0.235  51.522  15.552  1.00 10.76    -0.039 NA
HETATM   25  C5  GNP A 200       1.099  50.587  13.449  1.00  8.26     0.162 A 
HETATM   26  C2  GNP A 200      -0.633  52.181  14.972  1.00  9.86     0.772 A 
HETATM   27  N1  GNP A 200      -0.762  52.143  13.492  1.00 10.22    -0.029 NA
HETATM   28  N2  GNP A 200      -1.549  52.972  15.431  1.00 11.49     0.062 N 
HETATM   29  C6  GNP A 200       0.087  51.364  12.830  1.00 10.19     0.251 A 
HETATM   30  O6  GNP A 200      -0.051  51.305  11.478  1.00 11.17    -0.167 OA
HETATM   31  N7  GNP A 200       2.053  49.782  13.121  1.00  8.86    -0.219 NA
HETATM   32  C8  GNP A 200       2.737  49.339  14.196  1.00 11.92     0.182 A 
ENDBRANCH   7  22
TORSDOF 8
ENDMDL
MODEL 3
REMARK VINA RESULT:    -7.898      3.680      5.584
REMARK INTER + INTRA:         -12.584
REMARK INTER:                 -12.034
REMARK INTRA:                  -0.550
REMARK UNBOUND:                -0.992
REMARK  8 active torsions:
REMARK  status: ('A' for Active; 'I' for Inactive)
REMARK    1  A    between atoms: PA_1  and  O5'_5 
REMARK    2  A    between atoms: PA_1  and  O3A_24 
REMARK    3  A    between atoms: PB_2  and  N3B_23 
REMARK    4  A    between atoms: PB_2  and  O3A_24 
REMARK    5  A    between atoms: PG_3  and  N3B_23 
REMARK    6  A    between atoms: C5'_4  and  O5'_5 
REMARK    7  A    between atoms: C5'_4  and  C4'_6 
REMARK    8  A    between atoms: C1'_12  and  N9_32 
ROOT
HETATM    1  C4' GNP A 200       3.608  49.481  15.349  1.00 11.60     0.181 C 
HETATM    2  O4' GNP A 200       2.916  49.809  14.102  1.00 10.96    -0.331 OA
HETATM    3  C3' GNP A 200       2.798  50.155  16.468  1.00 12.08     0.216 C 
HETATM    4  O3' GNP A 200       3.321  51.493  16.652  1.00 14.40    -0.218 OA
HETATM    5  C2' GNP A 200       1.367  50.230  15.847  1.00 12.17     0.234 C 
HETATM    6  O2' GNP A 200       0.553  51.350  16.293  1.00 13.60    -0.216 OA
HETATM    7  C1' GNP A 200       1.679  50.524  14.366  1.00 11.60     0.241 C 
ENDROOT
BRANCH   1   8
HETATM    8  C5' GNP A 200       3.766  48.025  15.516  1.00 10.62     0.187 C 
BRANCH   8   9
HETATM    9  O5' GNP A 200       4.358  47.411  14.349  1.00  9.72    -0.268 OA
BRANCH   9  10
HETATM   10  PA  GNP A 200       5.535  46.444  14.472  1.00 10.32     0.418 P 
HETATM   11  O1A GNP A 200       5.926  46.283  15.944  1.00  9.87    -0.624 OA
HETATM   12  O2A GNP A 200       6.619  46.780  13.468  1.00 11.09    -0.624 OA
BRANCH  10  13
HETATM   13  O3A GNP A 200       4.839  45.000  13.943  1.00  9.21    -0.185 OA
BRANCH  13  14
HETATM   14  PB  GNP A 200       4.507  43.735  14.781  1.00  8.42     0.401 P 
HETATM   15  O1B GNP A 200       5.837  43.129  14.994  1.00  8.14    -0.628 OA
HETATM   16  O2B GNP A 200       3.510  42.945  14.139  1.00  8.71    -0.628 OA
BRANCH  14  17
HETATM   17  N3B GNP A 200       3.941  44.383  16.323  1.00  9.58    -0.091 NA
BRANCH  17  18
HETATM   18  PG  GNP A 200       3.931  43.541  17.701  1.00  9.51     0.404 P 
HETATM   19  O1G GNP A 200       4.841  44.261  18.727  1.00 10.72    -0.621 OA
HETATM   20  O2G GNP A 200       4.311  42.204  17.460  1.00 10.01    -0.621 OA
HETATM   21  O3G GNP A 200       2.444  43.632  18.141  1.00 11.72    -0.621 OA
ENDBRANCH  17  18
ENDBRANCH  14  17
ENDBRANCH  13  14
ENDBRANCH  10  13
ENDBRANCH   9  10
ENDBRANCH   8   9
ENDBRANCH   1   8
BRANCH   7  22
HETATM   22  N9  GNP A 200       0.672  50.078  13.337  1.00  9.54    -0.269 N 
HETATM   23  C4  GNP A 200       0.743  50.285  12.046  1.00  9.54     0.187 A 
HETATM   24  N3  GNP A 200       1.674  50.868  11.319  1.00 10.76    -0.039 NA
HETATM   25  C5  GNP A 200      -0.495  49.749  11.614  1.00  8.26     0.162 A 
HETATM   26  C2  GNP A 200       1.533  50.948  10.095  1.00  9.86     0.772 A 
HETATM   27  N1  GNP A 200       0.317  50.415   9.427  1.00 10.22    -0.029 NA
HETATM   28  N2  GNP A 200       2.298  51.455   9.182  1.00 11.49     0.062 N 
HETATM   29  C6  GNP A 200      -0.608  49.863  10.205  1.00 10.19     0.251 A 
HETATM   30  O6  GNP A 200      -1.736  49.405   9.597  1.00 11.17    -0.167 OA
HETATM   31  N7  GNP A 200      -1.160  49.277  12.615  1.00  8.86    -0.219 NA
HETATM   32  C8  GNP A 200      -0.510  49.447  13.784  1.00 11.92     0.182 A 
ENDBRANCH   7  22
TORSDOF 8
ENDMDL
MODEL 4
REMARK VINA RESULT:    -7.859      2.300      3.152
REMARK INTER + INTRA:         -12.527
REMARK INTER:                 -11.565
REMARK INTRA:                  -0.962
REMARK UNBOUND:                -0.992
REMARK  8 active torsions:
REMARK  status: ('A' for Active; 'I' for Inactive)
REMARK    1  A    between atoms: PA_1  and  O5'_5 
REMARK    2  A    between atoms: PA_1  and  O3A_24 
REMARK    3  A    between atoms: PB_2  and  N3B_23 
REMARK    4  A    between atoms: PB_2  and  O3A_24 
REMARK    5  A    between atoms: PG_3  and  N3B_23 
REMARK    6  A    between atoms: C5'_4  and  O5'_5 
REMARK    7  A    between atoms: C5'_4  and  C4'_6 
REMARK    8  A    between atoms: C1'_12  and  N9_32 
ROOT
HETATM    1  C4' GNP A 200       3.661  48.613  16.704  1.00 11.60     0.181 C 
HETATM    2  O4' GNP A 200       3.185  49.970  16.971  1.00 10.96    -0.331 OA
HETATM    3  C3' GNP A 200       2.648  47.673  17.377  1.00 12.08     0.216 C 
HETATM    4  O3' GNP A 200       3.088  47.446  18.739  1.00 14.40    -0.218 OA
HETATM    5  C2' GNP A 200       1.345  48.532  17.381  1.00 12.17     0.234 C 
HETATM    6  O2' GNP A 200       0.430  48.271  18.481  1.00 13.60    -0.216 OA
HETATM    7  C1' GNP A 200       1.898  49.947  17.646  1.00 11.60     0.241 C 
ENDROOT
BRANCH   1   8
HETATM    8  C5' GNP A 200       3.835  48.372  15.260  1.00 10.62     0.187 C 
BRANCH   8   9
HETATM    9  O5' GNP A 200       4.035  46.970  14.969  1.00  9.72    -0.268 OA
BRANCH   9  10
HETATM   10  PA  GNP A 200       5.386  46.446  14.484  1.00 10.32     0.418 P 
HETATM   11  O1A GNP A 200       6.345  46.297  15.669  1.00  9.87    -0.624 OA
HETATM   12  O2A GNP A 200       5.857  47.211  13.264  1.00 11.09    -0.624 OA
BRANCH  10  13
HETATM   13  O3A GNP A 200       4.970  44.904  13.936  1.00  9.21    -0.185 OA
BRANCH  13  14
HETATM   14  PB  GNP A 200       4.543  43.672  14.780  1.00  8.42     0.401 P 
HETATM   15  O1B GNP A 200       5.826  42.978  15.012  1.00  8.14    -0.628 OA
HETATM   16  O2B GNP A 200       3.500  42.948  14.134  1.00  8.71    -0.628 OA
BRANCH  14  17
HETATM   17  N3B GNP A 200       4.008  44.371  16.312  1.00  9.58    -0.091 NA
BRANCH  17  18
HETATM   18  PG  GNP A 200       4.264  43.684  17.750  1.00  9.51     0.404 P 
HETATM   19  O1G GNP A 200       4.278  42.146  17.567  1.00 10.72    -0.621 OA
HETATM   20  O2G GNP A 200       3.303  44.127  18.683  1.00 10.01    -0.621 OA
HETATM   21  O3G GNP A 200       5.684  44.195  18.119  1.00 11.72    -0.621 OA
ENDBRANCH  17  18
ENDBRANCH  14  17
ENDBRANCH  13  14
ENDBRANCH  10  13
ENDBRANCH   9  10
ENDBRANCH   8   9
ENDBRANCH   1   8
BRANCH   7  22
HETATM   22  N9  GNP A 200       1.100  51.118  17.134  1.00  9.54    -0.269 N 
HETATM   23  C4  GNP A 200       0.313  51.887  17.846  1.00  9.54     0.187 A 
HETATM   24  N3  GNP A 200       0.044  51.882  19.135  1.00 10.76    -0.039 NA
HETATM   25  C5  GNP A 200      -0.232  52.724  16.842  1.00  8.26     0.162 A 
HETATM   26  C2  GNP A 200      -0.738  52.718  19.600  1.00  9.86     0.772 A 
HETATM   27  N1  GNP A 200      -1.400  53.719  18.723  1.00 10.22    -0.029 NA
HETATM   28  N2  GNP A 200      -1.146  52.920  20.811  1.00 11.49     0.062 N 
HETATM   29  C6  GNP A 200      -1.120  53.665  17.424  1.00 10.19     0.251 A 
HETATM   30  O6  GNP A 200      -1.750  54.560  16.617  1.00 11.17    -0.167 OA
HETATM   31  N7  GNP A 200       0.253  52.423  15.685  1.00  8.86    -0.219 NA
HETATM   32  C8  GNP A 200       1.115  51.388  15.748  1.00 11.92     0.182 A 
ENDBRANCH   7  22
TORSDOF 8
ENDMDL
MODEL 5
REMARK VINA RESULT:    -7.500      5.886      8.435
REMARK INTER + INTRA:         -11.999
REMARK INTER:                 -11.072
REMARK INTRA:                  -0.927
REMARK UNBOUND:                -0.992
REMARK  8 active torsions:
REMARK  status: ('A' for Active; 'I' for Inactive)
REMARK    1  A    between atoms: PA_1  and  O5'_5 
REMARK    2  A    between atoms: PA_1  and  O3A_24 
REMARK    3  A    between atoms: PB_2  and  N3B_23 
REMARK    4  A    between atoms: PB_2  and  O3A_24 
REMARK    5  A    between atoms: PG_3  and  N3B_23 
REMARK    6  A    between atoms: C5'_4  and  O5'_5 
REMARK    7  A    between atoms: C5'_4  and  C4'_6 
REMARK    8  A    between atoms: C1'_12  and  N9_32 
ROOT
HETATM    1  C4' GNP A 200       1.961  43.073  17.947  1.00 11.60     0.181 C 
HETATM    2  O4' GNP A 200       2.368  44.148  17.042  1.00 10.96    -0.331 OA
HETATM    3  C3' GNP A 200       2.933  43.134  19.134  1.00 12.08     0.216 C 
HETATM    4  O3' GNP A 200       4.072  42.294  18.820  1.00 14.40    -0.218 OA
HETATM    5  C2' GNP A 200       3.369  44.633  19.135  1.00 12.17     0.234 C 
HETATM    6  O2' GNP A 200       4.712  44.892  19.632  1.00 13.60    -0.216 OA
HETATM    7  C1' GNP A 200       3.432  44.946  17.627  1.00 11.60     0.241 C 
ENDROOT
BRANCH   1   8
HETATM    8  C5' GNP A 200       0.541  43.193  18.327  1.00 10.62     0.187 C 
BRANCH   8   9
HETATM    9  O5' GNP A 200      -0.124  41.908  18.332  1.00  9.72    -0.268 OA
BRANCH   9  10
HETATM   10  PA  GNP A 200      -0.460  41.195  19.641  1.00 10.32     0.418 P 
HETATM   11  O1A GNP A 200       0.145  41.958  20.823  1.00  9.87    -0.624 OA
HETATM   12  O2A GNP A 200      -0.196  39.707  19.529  1.00 11.09    -0.624 OA
BRANCH  10  13
HETATM   13  O3A GNP A 200      -2.138  41.368  19.695  1.00  9.21    -0.185 OA
BRANCH  13  14
HETATM   14  PB  GNP A 200      -3.160  40.529  20.509  1.00  8.42     0.401 P 
HETATM   15  O1B GNP A 200      -2.525  40.445  21.839  1.00  8.14    -0.628 OA
HETATM   16  O2B GNP A 200      -3.466  39.308  19.839  1.00  8.71    -0.628 OA
BRANCH  14  17
HETATM   17  N3B GNP A 200      -4.573  41.582  20.635  1.00  9.58    -0.091 NA
BRANCH  17  18
HETATM   18  PG  GNP A 200      -5.559  41.611  21.913  1.00  9.51     0.404 P 
HETATM   19  O1G GNP A 200      -5.821  40.155  22.368  1.00 10.72    -0.621 OA
HETATM   20  O2G GNP A 200      -6.739  42.321  21.604  1.00 10.01    -0.621 OA
HETATM   21  O3G GNP A 200      -4.712  42.365  22.975  1.00 11.72    -0.621 OA
ENDBRANCH  17  18
ENDBRANCH  14  17
ENDBRANCH  13  14
ENDBRANCH  10  13
ENDBRANCH   9  10
ENDBRANCH   8   9
ENDBRANCH   1   8
BRANCH   7  22
HETATM   22  N9  GNP A 200       3.213  46.374  17.199  1.00  9.54    -0.269 N 
HETATM   23  C4  GNP A 200       3.795  46.977  16.192  1.00  9.54     0.187 A 
HETATM   24  N3  GNP A 200       4.652  46.526  15.299  1.00 10.76    -0.039 NA
HETATM   25  C5  GNP A 200       3.293  48.294  16.334  1.00  8.26     0.162 A 
HETATM   26  C2  GNP A 200       5.074  47.283  14.419  1.00  9.86     0.772 A 
HETATM   27  N1  GNP A 200       4.647  48.705  14.363  1.00 10.22    -0.029 NA
HETATM   28  N2  GNP A 200       5.898  47.077  13.443  1.00 11.49     0.062 N 
HETATM   29  C6  GNP A 200       3.804  49.122  15.303  1.00 10.19     0.251 A 
HETATM   30  O6  GNP A 200       3.438  50.432  15.270  1.00 11.17    -0.167 OA
HETATM   31  N7  GNP A 200       2.487  48.368  17.340  1.00  8.86    -0.219 NA
HETATM   32  C8  GNP A 200       2.369  47.189  17.984  1.00 11.92     0.182 A 
ENDBRANCH   7  22
TORSDOF 8
ENDMDL
MODEL 6
REMARK VINA RESULT:    -7.314      9.008     11.819
REMARK INTER + INTRA:         -11.726
REMARK INTER:                 -10.601
REMARK INTRA:                  -1.125
REMARK UNBOUND:                -0.992
REMARK  8 active torsions:
REMARK  status: ('A' for Active; 'I' for Inactive)
REMARK    1  A    between atoms: PA_1  and  O5'_5 
REMARK    2  A    between atoms: PA_1  and  O3A_24 
REMARK    3  A    between atoms: PB_2  and  N3B_23 
REMARK    4  A    between atoms: PB_2  and  O3A_24 
REMARK    5  A    between atoms: PG_3  and  N3B_23 
REMARK    6  A    between atoms: C5'_4  and  O5'_5 
REMARK    7  A    between atoms: C5'_4  and  C4'_6 
REMARK    8  A    between atoms: C1'_12  and  N9_32 
ROOT
HETATM    1  C4' GNP A 200       8.553  45.125  23.534  1.00 11.60     0.181 C 
HETATM    2  O4' GNP A 200       9.314  44.557  24.646  1.00 10.96    -0.331 OA
HETATM    3  C3' GNP A 200       9.323  44.743  22.260  1.00 12.08     0.216 C 
HETATM    4  O3' GNP A 200      10.290  45.790  21.994  1.00 14.40    -0.218 OA
HETATM    5  C2' GNP A 200      10.064  43.439  22.694  1.00 12.17     0.234 C 
HETATM    6  O2' GNP A 200      11.339  43.199  22.036  1.00 13.60    -0.216 OA
HETATM    7  C1' GNP A 200      10.423  43.752  24.161  1.00 11.60     0.241 C 
ENDROOT
BRANCH   1   8
HETATM    8  C5' GNP A 200       7.151  44.668  23.546  1.00 10.62     0.187 C 
BRANCH   8   9
HETATM    9  O5' GNP A 200       6.522  44.830  22.254  1.00  9.72    -0.268 OA
BRANCH   9  10
HETATM   10  PA  GNP A 200       5.586  43.762  21.688  1.00 10.32     0.418 P 
HETATM   11  O1A GNP A 200       4.238  43.811  22.415  1.00  9.87    -0.624 OA
HETATM   12  O2A GNP A 200       6.296  42.429  21.569  1.00 11.09    -0.624 OA
BRANCH  10  13
HETATM   13  O3A GNP A 200       5.362  44.316  20.109  1.00  9.21    -0.185 OA
BRANCH  13  14
HETATM   14  PB  GNP A 200       4.343  43.806  19.053  1.00  8.42     0.401 P 
HETATM   15  O1B GNP A 200       3.113  44.541  19.409  1.00  8.14    -0.628 OA
HETATM   16  O2B GNP A 200       4.289  42.382  19.042  1.00  8.71    -0.628 OA
BRANCH  14  17
HETATM   17  N3B GNP A 200       4.952  44.454  17.527  1.00  9.58    -0.091 NA
BRANCH  17  18
HETATM   18  PG  GNP A 200       4.440  43.963  16.076  1.00  9.51     0.404 P 
HETATM   19  O1G GNP A 200       4.571  45.142  15.081  1.00 10.72    -0.621 OA
HETATM   20  O2G GNP A 200       3.128  43.451  16.168  1.00 10.01    -0.621 OA
HETATM   21  O3G GNP A 200       5.457  42.843  15.722  1.00 11.72    -0.621 OA
ENDBRANCH  17  18
ENDBRANCH  14  17
ENDBRANCH  13  14
ENDBRANCH  10  13
ENDBRANCH   9  10
ENDBRANCH   8   9
ENDBRANCH   1   8
BRANCH   7  22
HETATM   22  N9  GNP A 200      10.583  42.589  25.106  1.00  9.54    -0.269 N 
HETATM   23  C4  GNP A 200      11.704  41.976  25.394  1.00  9.54     0.187 A 
HETATM   24  N3  GNP A 200      12.938  42.211  24.997  1.00 10.76    -0.039 NA
HETATM   25  C5  GNP A 200      11.238  40.932  26.229  1.00  8.26     0.162 A 
HETATM   26  C2  GNP A 200      13.859  41.496  25.406  1.00  9.86     0.772 A 
HETATM   27  N1  GNP A 200      13.594  40.358  26.325  1.00 10.22    -0.029 NA
HETATM   28  N2  GNP A 200      15.131  41.532  25.174  1.00 11.49     0.062 N 
HETATM   29  C6  GNP A 200      12.330  40.142  26.673  1.00 10.19     0.251 A 
HETATM   30  O6  GNP A 200      12.085  39.081  27.488  1.00 11.17    -0.167 OA
HETATM   31  N7  GNP A 200       9.959  41.007  26.381  1.00  8.86    -0.219 NA
HETATM   32  C8  GNP A 200       9.423  42.032  25.689  1.00 11.92     0.182 A 
ENDBRANCH   7  22
TORSDOF 8
ENDMDL
MODEL 7
REMARK VINA RESULT:    -6.913      3.743      7.565
REMARK INTER + INTRA:         -11.139
REMARK INTER:                  -9.996
REMARK INTRA:                  -1.143
REMARK UNBOUND:                -0.992
REMARK  8 active torsions:
REMARK  status: ('A' for Active; 'I' for Inactive)
REMARK    1  A    between atoms: PA_1  and  O5'_5 
REMARK    2  A    between atoms: PA_1  and  O3A_24 
REMARK    3  A    between atoms: PB_2  and  N3B_23 
REMARK    4  A    between atoms: PB_2  and  O3A_24 
REMARK    5  A    between atoms: PG_3  and  N3B_23 
REMARK    6  A    between atoms: C5'_4  and  O5'_5 
REMARK    7  A    between atoms: C5'_4  and  C4'_6 
REMARK    8  A    between atoms: C1'_12  and  N9_32 
ROOT
HETATM    1  C4' GNP A 200      -0.378  49.698  18.160  1.00 11.60     0.181 C 
HETATM    2  O4' GNP A 200       0.365  48.498  17.778  1.00 10.96    -0.331 OA
HETATM    3  C3' GNP A 200       0.502  50.428  19.187  1.00 12.08     0.216 C 
HETATM    4  O3' GNP A 200       0.160  49.926  20.503  1.00 14.40    -0.218 OA
HETATM    5  C2' GNP A 200       1.937  49.951  18.797  1.00 12.17     0.234 C 
HETATM    6  O2' GNP A 200       2.889  49.879  19.895  1.00 13.60    -0.216 OA
HETATM    7  C1' GNP A 200       1.684  48.486  18.388  1.00 11.60     0.241 C 
ENDROOT
BRANCH   1   8
HETATM    8  C5' GNP A 200      -0.731  50.515  16.985  1.00 10.62     0.187 C 
BRANCH   8   9
HETATM    9  O5' GNP A 200       0.261  50.408  15.938  1.00  9.72    -0.268 OA
BRANCH   9  10
HETATM   10  PA  GNP A 200       0.463  51.529  14.920  1.00 10.32     0.418 P 
HETATM   11  O1A GNP A 200       1.926  51.982  14.925  1.00  9.87    -0.624 OA
HETATM   12  O2A GNP A 200      -0.620  52.581  15.051  1.00 11.09    -0.624 OA
BRANCH  10  13
HETATM   13  O3A GNP A 200       0.158  50.723  13.468  1.00  9.21    -0.185 OA
BRANCH  13  14
HETATM   14  PB  GNP A 200       1.080  50.613  12.224  1.00  8.42     0.401 P 
HETATM   15  O1B GNP A 200       2.213  49.813  12.729  1.00  8.14    -0.628 OA
HETATM   16  O2B GNP A 200       1.363  51.902  11.684  1.00  8.71    -0.628 OA
BRANCH  14  17
HETATM   17  N3B GNP A 200       0.156  49.616  11.096  1.00  9.58    -0.091 NA
BRANCH  17  18
HETATM   18  PG  GNP A 200       0.472  49.522   9.515  1.00  9.51     0.404 P 
HETATM   19  O1G GNP A 200       1.985  49.248   9.329  1.00 10.72    -0.621 OA
HETATM   20  O2G GNP A 200       0.031  50.690   8.857  1.00 10.01    -0.621 OA
HETATM   21  O3G GNP A 200      -0.359  48.283   9.079  1.00 11.72    -0.621 OA
ENDBRANCH  17  18
ENDBRANCH  14  17
ENDBRANCH  13  14
ENDBRANCH  10  13
ENDBRANCH   9  10
ENDBRANCH   8   9
ENDBRANCH   1   8
BRANCH   7  22
HETATM   22  N9  GNP A 200       2.634  47.862  17.398  1.00  9.54    -0.269 N 
HETATM   23  C4  GNP A 200       3.406  46.827  17.615  1.00  9.54     0.187 A 
HETATM   24  N3  GNP A 200       3.536  46.060  18.678  1.00 10.76    -0.039 NA
HETATM   25  C5  GNP A 200       4.126  46.763  16.397  1.00  8.26     0.162 A 
HETATM   26  C2  GNP A 200       4.337  45.119  18.659  1.00  9.86     0.772 A 
HETATM   27  N1  GNP A 200       5.174  44.850  17.461  1.00 10.22    -0.029 NA
HETATM   28  N2  GNP A 200       4.631  44.235  19.557  1.00 11.49     0.062 N 
HETATM   29  C6  GNP A 200       5.029  45.669  16.424  1.00 10.19     0.251 A 
HETATM   30  O6  GNP A 200       5.818  45.442  15.340  1.00 11.17    -0.167 OA
HETATM   31  N7  GNP A 200       3.741  47.694  15.591  1.00  8.86    -0.219 NA
HETATM   32  C8  GNP A 200       2.788  48.477  16.136  1.00 11.92     0.182 A 
ENDBRANCH   7  22
TORSDOF 8
ENDMDL
MODEL 8
REMARK VINA RESULT:    -6.896      4.668      7.868
REMARK INTER + INTRA:         -11.113
REMARK INTER:                 -10.181
REMARK INTRA:                  -0.932
REMARK UNBOUND:                -0.992
REMARK  8 active torsions:
REMARK  status: ('A' for Active; 'I' for Inactive)
REMARK    1  A    between atoms: PA_1  and  O5'_5 
REMARK    2  A    between atoms: PA_1  and  O3A_24 
REMARK    3  A    between atoms: PB_2  and  N3B_23 
REMARK    4  A    between atoms: PB_2  and  O3A_24 
REMARK    5  A    between atoms: PG_3  and  N3B_23 
REMARK    6  A    between atoms: C5'_4  and  O5'_5 
REMARK    7  A    between atoms: C5'_4  and  C4'_6 
REMARK    8  A    between atoms: C1'_12  and  N9_32 
ROOT
HETATM    1  C4' GNP A 200       1.955  49.914  18.594  1.00 11.60     0.181 C 
HETATM    2  O4' GNP A 200       2.970  48.861  18.552  1.00 10.96    -0.331 OA
HETATM    3  C3' GNP A 200       1.692  50.301  17.131  1.00 12.08     0.216 C 
HETATM    4  O3' GNP A 200       2.621  51.356  16.776  1.00 14.40    -0.218 OA
HETATM    5  C2' GNP A 200       2.065  48.992  16.365  1.00 12.17     0.234 C 
HETATM    6  O2' GNP A 200       2.578  49.184  15.017  1.00 13.60    -0.216 OA
HETATM    7  C1' GNP A 200       3.268  48.478  17.183  1.00 11.60     0.241 C 
ENDROOT
BRANCH   1   8
HETATM    8  C5' GNP A 200       0.751  49.478  19.325  1.00 10.62     0.187 C 
BRANCH   8   9
HETATM    9  O5' GNP A 200      -0.462  49.833  18.621  1.00  9.72    -0.268 OA
BRANCH   9  10
HETATM   10  PA  GNP A 200      -1.808  49.215  18.999  1.00 10.32     0.418 P 
HETATM   11  O1A GNP A 200      -2.949  50.057  18.421  1.00  9.87    -0.624 OA
HETATM   12  O2A GNP A 200      -1.845  48.859  20.471  1.00 11.09    -0.624 OA
BRANCH  10  13
HETATM   13  O3A GNP A 200      -1.750  47.749  18.164  1.00  9.21    -0.185 OA
BRANCH  13  14
HETATM   14  PB  GNP A 200      -2.938  46.919  17.607  1.00  8.42     0.401 P 
HETATM   15  O1B GNP A 200      -2.302  45.632  17.262  1.00  8.14    -0.628 OA
HETATM   16  O2B GNP A 200      -3.613  47.627  16.570  1.00  8.71    -0.628 OA
BRANCH  14  17
HETATM   17  N3B GNP A 200      -3.976  46.664  19.013  1.00  9.58    -0.091 NA
BRANCH  17  18
HETATM   18  PG  GNP A 200      -5.159  45.566  19.068  1.00  9.51     0.404 P 
HETATM   19  O1G GNP A 200      -6.152  45.852  17.915  1.00 10.72    -0.621 OA
HETATM   20  O2G GNP A 200      -5.766  45.564  20.341  1.00 10.01    -0.621 OA
HETATM   21  O3G GNP A 200      -4.397  44.237  18.806  1.00 11.72    -0.621 OA
ENDBRANCH  17  18
ENDBRANCH  14  17
ENDBRANCH  13  14
ENDBRANCH  10  13
ENDBRANCH   9  10
ENDBRANCH   8   9
ENDBRANCH   1   8
BRANCH   7  22
HETATM   22  N9  GNP A 200       3.535  46.996  17.176  1.00  9.54    -0.269 N 
HETATM   23  C4  GNP A 200       4.184  46.332  16.252  1.00  9.54     0.187 A 
HETATM   24  N3  GNP A 200       4.783  46.748  15.156  1.00 10.76    -0.039 NA
HETATM   25  C5  GNP A 200       4.035  45.002  16.716  1.00  8.26     0.162 A 
HETATM   26  C2  GNP A 200       5.347  45.932  14.419  1.00  9.86     0.772 A 
HETATM   27  N1  GNP A 200       5.342  44.481  14.738  1.00 10.22    -0.029 NA
HETATM   28  N2  GNP A 200       6.000  46.094  13.314  1.00 11.49     0.062 N 
HETATM   29  C6  GNP A 200       4.699  44.105  15.839  1.00 10.19     0.251 A 
HETATM   30  O6  GNP A 200       4.667  42.773  16.114  1.00 11.17    -0.167 OA
HETATM   31  N7  GNP A 200       3.368  44.976  17.820  1.00  8.86    -0.219 NA
HETATM   32  C8  GNP A 200       2.979  46.208  18.208  1.00 11.92     0.182 A 
ENDBRANCH   7  22
TORSDOF 8
ENDMDL
MODEL 9
REMARK VINA RESULT:    -6.884      4.847      8.057
REMARK INTER + INTRA:         -11.096
REMARK INTER:                 -10.087
REMARK INTRA:                  -1.009
REMARK UNBOUND:                -0.992
REMARK  8 active torsions:
REMARK  status: ('A' for Active; 'I' for Inactive)
REMARK    1  A    between atoms: PA_1  and  O5'_5 
REMARK    2  A    between atoms: PA_1  and  O3A_24 
REMARK    3  A    between atoms: PB_2  and  N3B_23 
REMARK    4  A    between atoms: PB_2  and  O3A_24 
REMARK    5  A    between atoms: PG_3  and  N3B_23 
REMARK    6  A    between atoms: C5'_4  and  O5'_5 
REMARK    7  A    between atoms: C5'_4  and  C4'_6 
REMARK    8  A    between atoms: C1'_12  and  N9_32 
ROOT
HETATM    1  C4' GNP A 200       1.549  49.584  18.510  1.00 11.60     0.181 C 
HETATM    2  O4' GNP A 200       2.593  48.560  18.565  1.00 10.96    -0.331 OA
HETATM    3  C3' GNP A 200       1.531  50.088  17.059  1.00 12.08     0.216 C 
HETATM    4  O3' GNP A 200       2.468  51.189  16.959  1.00 14.40    -0.218 OA
HETATM    5  C2' GNP A 200       2.079  48.857  16.269  1.00 12.17     0.234 C 
HETATM    6  O2' GNP A 200       2.811  49.174  15.053  1.00 13.60    -0.216 OA
HETATM    7  C1' GNP A 200       3.138  48.302  17.243  1.00 11.60     0.241 C 
ENDROOT
BRANCH   1   8
HETATM    8  C5' GNP A 200       0.252  49.062  18.980  1.00 10.62     0.187 C 
BRANCH   8   9
HETATM    9  O5' GNP A 200      -0.822  49.395  18.070  1.00  9.72    -0.268 OA
BRANCH   9  10
HETATM   10  PA  GNP A 200      -2.258  48.948  18.342  1.00 10.32     0.418 P 
HETATM   11  O1A GNP A 200      -3.207  50.145  18.230  1.00  9.87    -0.624 OA
HETATM   12  O2A GNP A 200      -2.329  48.081  19.582  1.00 11.09    -0.624 OA
BRANCH  10  13
HETATM   13  O3A GNP A 200      -2.541  47.917  17.035  1.00  9.21    -0.185 OA
BRANCH  13  14
HETATM   14  PB  GNP A 200      -3.900  47.353  16.540  1.00  8.42     0.401 P 
HETATM   15  O1B GNP A 200      -4.393  48.425  15.653  1.00  8.14    -0.628 OA
HETATM   16  O2B GNP A 200      -4.722  46.966  17.638  1.00  8.71    -0.628 OA
BRANCH  14  17
HETATM   17  N3B GNP A 200      -3.447  45.970  15.538  1.00  9.58    -0.091 NA
BRANCH  17  18
HETATM   18  PG  GNP A 200      -4.325  45.440  14.290  1.00  9.51     0.404 P 
HETATM   19  O1G GNP A 200      -5.822  45.683  14.601  1.00 10.72    -0.621 OA
HETATM   20  O2G GNP A 200      -4.022  44.089  14.018  1.00 10.01    -0.621 OA
HETATM   21  O3G GNP A 200      -3.857  46.365  13.133  1.00 11.72    -0.621 OA
ENDBRANCH  17  18
ENDBRANCH  14  17
ENDBRANCH  13  14
ENDBRANCH  10  13
ENDBRANCH   9  10
ENDBRANCH   8   9
ENDBRANCH   1   8
BRANCH   7  22
HETATM   22  N9  GNP A 200       3.457  46.831  17.166  1.00  9.54    -0.269 N 
HETATM   23  C4  GNP A 200       4.154  46.240  16.228  1.00  9.54     0.187 A 
HETATM   24  N3  GNP A 200       4.770  46.734  15.174  1.00 10.76    -0.039 NA
HETATM   25  C5  GNP A 200       4.038  44.882  16.615  1.00  8.26     0.162 A 
HETATM   26  C2  GNP A 200       5.383  45.979  14.413  1.00  9.86     0.772 A 
HETATM   27  N1  GNP A 200       5.419  44.513  14.655  1.00 10.22    -0.029 NA
HETATM   28  N2  GNP A 200       6.063  46.221  13.339  1.00 11.49     0.062 N 
HETATM   29  C6  GNP A 200       4.757  44.057  15.714  1.00 10.19     0.251 A 
HETATM   30  O6  GNP A 200       4.763  42.712  15.916  1.00 11.17    -0.167 OA
HETATM   31  N7  GNP A 200       3.340  44.775  17.696  1.00  8.86    -0.219 NA
HETATM   32  C8  GNP A 200       2.898  45.971  18.136  1.00 11.92     0.182 A 
ENDBRANCH   7  22
TORSDOF 8
ENDMDL
