MODEL 1
REMARK VINA RESULT:    -9.223      0.000      0.000
REMARK INTER + INTRA:         -14.091
REMARK INTER:                 -13.536
REMARK INTRA:                  -0.555
REMARK UNBOUND:                -0.555
REMARK  8 active torsions:
REMARK  status: ('A' for Active; 'I' for Inactive)
REMARK    1  A    between atoms: PA_1  and  O5'_5 
REMARK    2  A    between atoms: PA_1  and  O3A_24 
REMARK    3  A    between atoms: PB_2  and  N3B_23 
REMARK    4  A    between atoms: PB_2  and  O3A_24 
REMARK    5  A    between atoms: PG_3  and  N3B_23 
REMARK    6  A    between atoms: C5'_4  and  O5'_5 
REMARK    7  A    between atoms: C5'_4  and  C4'_6 
REMARK    8  A    between atoms: C1'_12  and  N9_32 
ROOT
HETATM    1  C4' GNP A 200       2.495  46.939  17.546  1.00 11.60     0.181 C 
HETATM    2  O4' GNP A 200       1.275  47.589  18.026  1.00 10.96    -0.331 OA
HETATM    3  C3' GNP A 200       3.332  48.049  16.891  1.00 12.08     0.216 C 
HETATM    4  O3' GNP A 200       2.951  48.127  15.495  1.00 14.40    -0.218 OA
HETATM    5  C2' GNP A 200       2.842  49.326  17.643  1.00 12.17     0.234 C 
HETATM    6  O2' GNP A 200       2.888  50.559  16.872  1.00 13.60    -0.216 OA
HETATM    7  C1' GNP A 200       1.341  49.027  17.832  1.00 11.60     0.241 C 
ENDROOT
BRANCH   1   8
HETATM    8  C5' GNP A 200       3.192  46.224  18.631  1.00 10.62     0.187 C 
BRANCH   8   9
HETATM    9  O5' GNP A 200       4.023  45.155  18.123  1.00  9.72    -0.268 OA
BRANCH   9  10
HETATM   10  PA  GNP A 200       3.484  43.733  17.976  1.00 10.32     0.418 P 
HETATM   11  O1A GNP A 200       2.110  43.624  18.642  1.00  9.87    -0.624 OA
HETATM   12  O2A GNP A 200       4.545  42.712  18.334  1.00 11.09    -0.624 OA
BRANCH  10  13
HETATM   13  O3A GNP A 200       3.278  43.624  16.304  1.00  9.21    -0.185 OA
BRANCH  13  14
HETATM   14  PB  GNP A 200       4.365  43.712  15.198  1.00  8.42     0.401 P 
HETATM   15  O1B GNP A 200       3.653  43.216  14.003  1.00  8.14    -0.628 OA
HETATM   16  O2B GNP A 200       5.553  43.033  15.596  1.00  8.71    -0.628 OA
BRANCH  14  17
HETATM   17  N3B GNP A 200       4.633  45.447  15.003  1.00  9.58    -0.091 NA
BRANCH  17  18
HETATM   18  PG  GNP A 200       5.902  46.077  14.228  1.00  9.51     0.404 P 
HETATM   19  O1G GNP A 200       5.586  47.553  13.880  1.00 10.72    -0.621 OA
HETATM   20  O2G GNP A 200       6.226  45.294  13.101  1.00 10.01    -0.621 OA
HETATM   21  O3G GNP A 200       7.022  46.005  15.303  1.00 11.72    -0.621 OA
ENDBRANCH  17  18
ENDBRANCH  14  17
ENDBRANCH  13  14
ENDBRANCH  10  13
ENDBRANCH   9  10
ENDBRANCH   8   9
ENDBRANCH   1   8
BRANCH   7  22
HETATM   22  N9  GNP A 200       0.641  49.672  19.000  1.00  9.54    -0.269 N 
HETATM   23  C4  GNP A 200       1.218  50.217  20.043  1.00  9.54     0.187 A 
HETATM   24  N3  GNP A 200       2.492  50.382  20.331  1.00 10.76    -0.039 NA
HETATM   25  C5  GNP A 200       0.092  50.554  20.833  1.00  8.26     0.162 A 
HETATM   26  C2  GNP A 200       2.815  50.936  21.386  1.00  9.86     0.772 A 
HETATM   27  N1  GNP A 200       1.785  51.403  22.351  1.00 10.22    -0.029 NA
HETATM   28  N2  GNP A 200       3.977  51.217  21.879  1.00 11.49     0.062 N 
HETATM   29  C6  GNP A 200       0.513  51.187  22.031  1.00 10.19     0.251 A 
HETATM   30  O6  GNP A 200      -0.428  51.585  22.929  1.00 11.17    -0.167 OA
HETATM   31  N7  GNP A 200      -1.001  50.223  20.234  1.00  8.86    -0.219 NA
HETATM   32  C8  GNP A 200      -0.770  49.630  19.044  1.00 11.92     0.182 A 
ENDBRANCH   7  22
TORSDOF 8
ENDMDL
MODEL 2
REMARK VINA RESULT:    -8.328      1.750      2.474
REMARK INTER + INTRA:         -12.778
REMARK INTER:                 -11.854
REMARK INTRA:                  -0.924
REMARK UNBOUND:                -0.555
REMARK  8 active torsions:
REMARK  status: ('A' for Active; 'I' for Inactive)
REMARK    1  A    between atoms: PA_1  and  O5'_5 
REMARK    2  A    between atoms: PA_1  and  O3A_24 
REMARK    3  A    between atoms: PB_2  and  N3B_23 
REMARK    4  A    between atoms: PB_2  and  O3A_24 
REMARK    5  A    between atoms: PG_3  and  N3B_23 
REMARK    6  A    between atoms: C5'_4  and  O5'_5 
REMARK    7  A    between atoms: C5'_4  and  C4'_6 
REMARK    8  A    between atoms: C1'_12  and  N9_32 
ROOT
HETATM    1  C4' GNP A 200       2.661  47.016  17.164  1.00 11.60     0.181 C 
HETATM    2  O4' GNP A 200       1.396  47.693  17.448  1.00 10.96    -0.331 OA
HETATM    3  C3' GNP A 200       3.568  48.075  16.518  1.00 12.08     0.216 C 
HETATM    4  O3' GNP A 200       3.347  48.034  15.085  1.00 14.40    -0.218 OA
HETATM    5  C2' GNP A 200       2.997  49.406  17.100  1.00 12.17     0.234 C 
HETATM    6  O2' GNP A 200       3.131  50.571  16.239  1.00 13.60    -0.216 OA
HETATM    7  C1' GNP A 200       1.484  49.111  17.144  1.00 11.60     0.241 C 
ENDROOT
BRANCH   1   8
HETATM    8  C5' GNP A 200       3.231  46.399  18.377  1.00 10.62     0.187 C 
BRANCH   8   9
HETATM    9  O5' GNP A 200       3.978  45.200  18.069  1.00  9.72    -0.268 OA
BRANCH   9  10
HETATM   10  PA  GNP A 200       3.276  43.855  17.879  1.00 10.32     0.418 P 
HETATM   11  O1A GNP A 200       1.849  43.929  18.429  1.00  9.87    -0.624 OA
HETATM   12  O2A GNP A 200       4.165  42.713  18.327  1.00 11.09    -0.624 OA
BRANCH  10  13
HETATM   13  O3A GNP A 200       3.197  43.754  16.196  1.00  9.21    -0.185 OA
BRANCH  13  14
HETATM   14  PB  GNP A 200       4.364  43.538  15.195  1.00  8.42     0.401 P 
HETATM   15  O1B GNP A 200       3.724  42.763  14.113  1.00  8.14    -0.628 OA
HETATM   16  O2B GNP A 200       5.495  42.964  15.846  1.00  8.71    -0.628 OA
BRANCH  14  17
HETATM   17  N3B GNP A 200       4.709  45.160  14.587  1.00  9.58    -0.091 NA
BRANCH  17  18
HETATM   18  PG  GNP A 200       6.191  45.681  14.211  1.00  9.51     0.404 P 
HETATM   19  O1G GNP A 200       7.038  44.469  13.750  1.00 10.72    -0.621 OA
HETATM   20  O2G GNP A 200       6.756  46.377  15.300  1.00 10.01    -0.621 OA
HETATM   21  O3G GNP A 200       5.918  46.635  13.015  1.00 11.72    -0.621 OA
ENDBRANCH  17  18
ENDBRANCH  14  17
ENDBRANCH  13  14
ENDBRANCH  10  13
ENDBRANCH   9  10
ENDBRANCH   8   9
ENDBRANCH   1   8
BRANCH   7  22
HETATM   22  N9  GNP A 200       0.658  49.844  18.168  1.00  9.54    -0.269 N 
HETATM   23  C4  GNP A 200       0.174  51.055  18.046  1.00  9.54     0.187 A 
HETATM   24  N3  GNP A 200       0.233  51.908  17.044  1.00 10.76    -0.039 NA
HETATM   25  C5  GNP A 200      -0.410  51.246  19.323  1.00  8.26     0.162 A 
HETATM   26  C2  GNP A 200      -0.309  53.013  17.148  1.00  9.86     0.772 A 
HETATM   27  N1  GNP A 200      -1.011  53.407  18.397  1.00 10.22    -0.029 NA
HETATM   28  N2  GNP A 200      -0.396  53.999  16.315  1.00 11.49     0.062 N 
HETATM   29  C6  GNP A 200      -1.018  52.525  19.392  1.00 10.19     0.251 A 
HETATM   30  O6  GNP A 200      -1.633  52.899  20.546  1.00 11.17    -0.167 OA
HETATM   31  N7  GNP A 200      -0.255  50.195  20.056  1.00  8.86    -0.219 NA
HETATM   32  C8  GNP A 200       0.434  49.227  19.418  1.00 11.92     0.182 A 
ENDBRANCH   7  22
TORSDOF 8
ENDMDL
MODEL 3
REMARK VINA RESULT:    -8.164      1.401      2.451
REMARK INTER + INTRA:         -12.537
REMARK INTER:                 -12.001
REMARK INTRA:                  -0.536
REMARK UNBOUND:                -0.555
REMARK  8 active torsions:
REMARK  status: ('A' for Active; 'I' for Inactive)
REMARK    1  A    between atoms: PA_1  and  O5'_5 
REMARK    2  A    between atoms: PA_1  and  O3A_24 
REMARK    3  A    between atoms: PB_2  and  N3B_23 
REMARK    4  A    between atoms: PB_2  and  O3A_24 
REMARK    5  A    between atoms: PG_3  and  N3B_23 
REMARK    6  A    between atoms: C5'_4  and  O5'_5 
REMARK    7  A    between atoms: C5'_4  and  C4'_6 
REMARK    8  A    between atoms: C1'_12  and  N9_32 
ROOT
HETATM    1  C4' GNP A 200       2.584  48.317  16.501  1.00 11.60     0.181 C 
HETATM    2  O4' GNP A 200       1.506  48.690  17.417  1.00 10.96    -0.331 OA
HETATM    3  C3' GNP A 200       3.184  49.639  15.999  1.00 12.08     0.216 C 
HETATM    4  O3' GNP A 200       2.454  50.035  14.810  1.00 14.40    -0.218 OA
HETATM    5  C2' GNP A 200       2.859  50.621  17.168  1.00 12.17     0.234 C 
HETATM    6  O2' GNP A 200       2.661  52.009  16.779  1.00 13.60    -0.216 OA
HETATM    7  C1' GNP A 200       1.468  50.128  17.619  1.00 11.60     0.241 C 
ENDROOT
BRANCH   1   8
HETATM    8  C5' GNP A 200       3.562  47.423  17.148  1.00 10.62     0.187 C 
BRANCH   8   9
HETATM    9  O5' GNP A 200       2.928  46.253  17.715  1.00  9.72    -0.268 OA
BRANCH   9  10
HETATM   10  PA  GNP A 200       3.485  44.852  17.469  1.00 10.32     0.418 P 
HETATM   11  O1A GNP A 200       2.375  43.811  17.646  1.00  9.87    -0.624 OA
HETATM   12  O2A GNP A 200       4.790  44.650  18.210  1.00 11.09    -0.624 OA
BRANCH  10  13
HETATM   13  O3A GNP A 200       3.884  44.933  15.831  1.00  9.21    -0.185 OA
BRANCH  13  14
HETATM   14  PB  GNP A 200       4.641  43.878  14.978  1.00  8.42     0.401 P 
HETATM   15  O1B GNP A 200       3.549  43.215  14.238  1.00  8.14    -0.628 OA
HETATM   16  O2B GNP A 200       5.479  43.067  15.797  1.00  8.71    -0.628 OA
BRANCH  14  17
HETATM   17  N3B GNP A 200       5.577  44.847  13.835  1.00  9.58    -0.091 NA
BRANCH  17  18
HETATM   18  PG  GNP A 200       6.813  45.794  14.264  1.00  9.51     0.404 P 
HETATM   19  O1G GNP A 200       6.823  47.039  13.343  1.00 10.72    -0.621 OA
HETATM   20  O2G GNP A 200       8.021  45.065  14.232  1.00 10.01    -0.621 OA
HETATM   21  O3G GNP A 200       6.439  46.199  15.716  1.00 11.72    -0.621 OA
ENDBRANCH  17  18
ENDBRANCH  14  17
ENDBRANCH  13  14
ENDBRANCH  10  13
ENDBRANCH   9  10
ENDBRANCH   8   9
ENDBRANCH   1   8
BRANCH   7  22
HETATM   22  N9  GNP A 200       1.070  50.373  19.051  1.00  9.54    -0.269 N 
HETATM   23  C4  GNP A 200       0.001  49.906  19.646  1.00  9.54     0.187 A 
HETATM   24  N3  GNP A 200      -0.949  49.108  19.205  1.00 10.76    -0.039 NA
HETATM   25  C5  GNP A 200       0.098  50.532  20.913  1.00  8.26     0.162 A 
HETATM   26  C2  GNP A 200      -1.877  48.788  19.954  1.00  9.86     0.772 A 
HETATM   27  N1  GNP A 200      -1.952  49.307  21.345  1.00 10.22    -0.029 NA
HETATM   28  N2  GNP A 200      -2.903  48.023  19.760  1.00 11.49     0.062 N 
HETATM   29  C6  GNP A 200      -0.986  50.133  21.736  1.00 10.19     0.251 A 
HETATM   30  O6  GNP A 200      -1.072  50.633  22.998  1.00 11.17    -0.167 OA
HETATM   31  N7  GNP A 200       1.159  51.264  20.979  1.00  8.86    -0.219 NA
HETATM   32  C8  GNP A 200       1.859  51.250  19.827  1.00 11.92     0.182 A 
ENDBRANCH   7  22
TORSDOF 8
ENDMDL
MODEL 4
REMARK VINA RESULT:    -7.328      5.352      7.875
REMARK INTER + INTRA:         -11.311
REMARK INTER:                 -10.521
REMARK INTRA:                  -0.789
REMARK UNBOUND:                -0.555
REMARK  8 active torsions:
REMARK  status: ('A' for Active; 'I' for Inactive)
REMARK    1  A    between atoms: PA_1  and  O5'_5 
REMARK    2  A    between atoms: PA_1  and  O3A_24 
REMARK    3  A    between atoms: PB_2  and  N3B_23 
REMARK    4  A    between atoms: PB_2  and  O3A_24 
REMARK    5  A    between atoms: PG_3  and  N3B_23 
REMARK    6  A    between atoms: C5'_4  and  O5'_5 
REMARK    7  A    between atoms: C5'_4  and  C4'_6 
REMARK    8  A    between atoms: C1'_12  and  N9_32 
ROOT
HETATM    1  C4' GNP A 200       1.167  50.291  14.756  1.00 11.60     0.181 C 
HETATM    2  O4' GNP A 200       1.270  49.184  15.707  1.00 10.96    -0.331 OA
HETATM    3  C3' GNP A 200       1.852  51.489  15.431  1.00 12.08     0.216 C 
HETATM    4  O3' GNP A 200       0.851  52.198  16.203  1.00 14.40    -0.218 OA
HETATM    5  C2' GNP A 200       2.866  50.796  16.395  1.00 12.17     0.234 C 
HETATM    6  O2' GNP A 200       3.171  51.531  17.613  1.00 13.60    -0.216 OA
HETATM    7  C1' GNP A 200       2.068  49.561  16.860  1.00 11.60     0.241 C 
ENDROOT
BRANCH   1   8
HETATM    8  C5' GNP A 200       1.737  49.936  13.444  1.00 10.62     0.187 C 
BRANCH   8   9
HETATM    9  O5' GNP A 200       0.707  49.643  12.472  1.00  9.72    -0.268 OA
BRANCH   9  10
HETATM   10  PA  GNP A 200       0.643  50.385  11.137  1.00 10.32     0.418 P 
HETATM   11  O1A GNP A 200       1.692  51.501  11.109  1.00  9.87    -0.624 OA
HETATM   12  O2A GNP A 200      -0.788  50.728  10.777  1.00 11.09    -0.624 OA
BRANCH  10  13
HETATM   13  O3A GNP A 200       1.120  49.177  10.059  1.00  9.21    -0.185 OA
BRANCH  13  14
HETATM   14  PB  GNP A 200       0.875  49.112   8.526  1.00  8.42     0.401 P 
HETATM   15  O1B GNP A 200      -0.499  48.580   8.440  1.00  8.14    -0.628 OA
HETATM   16  O2B GNP A 200       1.914  48.386   7.874  1.00  8.71    -0.628 OA
BRANCH  14  17
HETATM   17  N3B GNP A 200       0.844  50.807   8.029  1.00  9.58    -0.091 NA
BRANCH  17  18
HETATM   18  PG  GNP A 200       1.893  51.454   6.985  1.00  9.51     0.404 P 
HETATM   19  O1G GNP A 200       1.722  50.753   5.615  1.00 10.72    -0.621 OA
HETATM   20  O2G GNP A 200       3.206  51.372   7.495  1.00 10.01    -0.621 OA
HETATM   21  O3G GNP A 200       1.414  52.930   6.899  1.00 11.72    -0.621 OA
ENDBRANCH  17  18
ENDBRANCH  14  17
ENDBRANCH  13  14
ENDBRANCH  10  13
ENDBRANCH   9  10
ENDBRANCH   8   9
ENDBRANCH   1   8
BRANCH   7  22
HETATM   22  N9  GNP A 200       2.848  48.345  17.287  1.00  9.54    -0.269 N 
HETATM   23  C4  GNP A 200       3.696  47.672  16.549  1.00  9.54     0.187 A 
HETATM   24  N3  GNP A 200       4.114  47.877  15.317  1.00 10.76    -0.039 NA
HETATM   25  C5  GNP A 200       4.029  46.605  17.419  1.00  8.26     0.162 A 
HETATM   26  C2  GNP A 200       4.936  47.105  14.813  1.00  9.86     0.772 A 
HETATM   27  N1  GNP A 200       5.448  45.932  15.569  1.00 10.22    -0.029 NA
HETATM   28  N2  GNP A 200       5.495  47.101  13.646  1.00 11.49     0.062 N 
HETATM   29  C6  GNP A 200       4.974  45.750  16.797  1.00 10.19     0.251 A 
HETATM   30  O6  GNP A 200       5.419  44.658  17.476  1.00 11.17    -0.167 OA
HETATM   31  N7  GNP A 200       3.408  46.724  18.544  1.00  8.86    -0.219 NA
HETATM   32  C8  GNP A 200       2.603  47.805  18.569  1.00 11.92     0.182 A 
ENDBRANCH   7  22
TORSDOF 8
ENDMDL
MODEL 5
REMARK VINA RESULT:    -7.265      4.589      8.153
REMARK INTER + INTRA:         -11.218
REMARK INTER:                  -9.809
REMARK INTRA:                  -1.409
REMARK UNBOUND:                -0.555
REMARK  8 active torsions:
REMARK  status: ('A' for Active; 'I' for Inactive)
REMARK    1  A    between atoms: PA_1  and  O5'_5 
REMARK    2  A    between atoms: PA_1  and  O3A_24 
REMARK    3  A    between atoms: PB_2  and  N3B_23 
REMARK    4  A    between atoms: PB_2  and  O3A_24 
REMARK    5  A    between atoms: PG_3  and  N3B_23 
REMARK    6  A    between atoms: C5'_4  and  O5'_5 
REMARK    7  A    between atoms: C5'_4  and  C4'_6 
REMARK    8  A    between atoms: C1'_12  and  N9_32 
ROOT
HETATM    1  C4' GNP A 200       1.021  50.315  16.914  1.00 11.60     0.181 C 
HETATM    2  O4' GNP A 200       1.509  49.290  15.991  1.00 10.96    -0.331 OA
HETATM    3  C3' GNP A 200       1.544  49.913  18.302  1.00 12.08     0.216 C 
HETATM    4  O3' GNP A 200       0.559  49.043  18.914  1.00 14.40    -0.218 OA
HETATM    5  C2' GNP A 200       2.826  49.093  17.953  1.00 12.17     0.234 C 
HETATM    6  O2' GNP A 200       3.168  48.040  18.896  1.00 13.60    -0.216 OA
HETATM    7  C1' GNP A 200       2.391  48.357  16.669  1.00 11.60     0.241 C 
ENDROOT
BRANCH   1   8
HETATM    8  C5' GNP A 200       1.427  51.667  16.489  1.00 10.62     0.187 C 
BRANCH   8   9
HETATM    9  O5' GNP A 200       1.719  51.720  15.073  1.00  9.72    -0.268 OA
BRANCH   9  10
HETATM   10  PA  GNP A 200       0.754  52.380  14.089  1.00 10.32     0.418 P 
HETATM   11  O1A GNP A 200       1.447  53.551  13.384  1.00  9.87    -0.624 OA
HETATM   12  O2A GNP A 200      -0.596  52.621  14.733  1.00 11.09    -0.624 OA
BRANCH  10  13
HETATM   13  O3A GNP A 200       0.522  51.142  12.966  1.00  9.21    -0.185 OA
BRANCH  13  14
HETATM   14  PB  GNP A 200       0.315  51.269  11.432  1.00  8.42     0.401 P 
HETATM   15  O1B GNP A 200       1.685  51.515  10.939  1.00  8.14    -0.628 OA
HETATM   16  O2B GNP A 200      -0.685  52.239  11.131  1.00  8.71    -0.628 OA
BRANCH  14  17
HETATM   17  N3B GNP A 200      -0.171  49.646  10.932  1.00  9.58    -0.091 NA
BRANCH  17  18
HETATM   18  PG  GNP A 200      -0.136  49.131   9.401  1.00  9.51     0.404 P 
HETATM   19  O1G GNP A 200       1.322  48.752   9.041  1.00 10.72    -0.621 OA
HETATM   20  O2G GNP A 200      -0.688  50.106   8.544  1.00 10.01    -0.621 OA
HETATM   21  O3G GNP A 200      -1.027  47.859   9.454  1.00 11.72    -0.621 OA
ENDBRANCH  17  18
ENDBRANCH  14  17
ENDBRANCH  13  14
ENDBRANCH  10  13
ENDBRANCH   9  10
ENDBRANCH   8   9
ENDBRANCH   1   8
BRANCH   7  22
HETATM   22  N9  GNP A 200       3.467  47.961  15.691  1.00  9.54    -0.269 N 
HETATM   23  C4  GNP A 200       4.038  46.785  15.604  1.00  9.54     0.187 A 
HETATM   24  N3  GNP A 200       3.821  45.673  16.275  1.00 10.76    -0.039 NA
HETATM   25  C5  GNP A 200       5.013  47.028  14.606  1.00  8.26     0.162 A 
HETATM   26  C2  GNP A 200       4.485  44.664  16.019  1.00  9.86     0.772 A 
HETATM   27  N1  GNP A 200       5.544  44.689  14.976  1.00 10.22    -0.029 NA
HETATM   28  N2  GNP A 200       4.452  43.472  16.523  1.00 11.49     0.062 N 
HETATM   29  C6  GNP A 200       5.747  45.842  14.347  1.00 10.19     0.251 A 
HETATM   30  O6  GNP A 200       6.738  45.873  13.415  1.00 11.17    -0.167 OA
HETATM   31  N7  GNP A 200       4.943  48.246  14.188  1.00  8.86    -0.219 NA
HETATM   32  C8  GNP A 200       3.988  48.950  14.829  1.00 11.92     0.182 A 
ENDBRANCH   7  22
TORSDOF 8
ENDMDL
MODEL 6
REMARK VINA RESULT:    -7.128      4.447      7.648
REMARK INTER + INTRA:         -11.016
REMARK INTER:                 -10.543
REMARK INTRA:                  -0.473
REMARK UNBOUND:                -0.555
REMARK  8 active torsions:
REMARK  status: ('A' for Active; 'I' for Inactive)
REMARK    1  A    between atoms: PA_1  and  O5'_5 
REMARK    2  A    between atoms: PA_1  and  O3A_24 
REMARK    3  A    between atoms: PB_2  and  N3B_23 
REMARK    4  A    between atoms: PB_2  and  O3A_24 
REMARK    5  A    between atoms: PG_3  and  N3B_23 
REMARK    6  A    between atoms: C5'_4  and  O5'_5 
REMARK    7  A    between atoms: C5'_4  and  C4'_6 
REMARK    8  A    between atoms: C1'_12  and  N9_32 
ROOT
HETATM    1  C4' GNP A 200       1.363  49.123  18.303  1.00 11.60     0.181 C 
HETATM    2  O4' GNP A 200       2.457  48.152  18.268  1.00 10.96    -0.331 OA
HETATM    3  C3' GNP A 200       1.678  50.149  17.204  1.00 12.08     0.216 C 
HETATM    4  O3' GNP A 200       2.486  51.198  17.794  1.00 14.40    -0.218 OA
HETATM    5  C2' GNP A 200       2.541  49.317  16.205  1.00 12.17     0.234 C 
HETATM    6  O2' GNP A 200       3.533  50.075  15.458  1.00 13.60    -0.216 OA
HETATM    7  C1' GNP A 200       3.357  48.422  17.160  1.00 11.60     0.241 C 
ENDROOT
BRANCH   1   8
HETATM    8  C5' GNP A 200       0.051  48.467  18.154  1.00 10.62     0.187 C 
BRANCH   8   9
HETATM    9  O5' GNP A 200      -0.874  48.874  19.188  1.00  9.72    -0.268 OA
BRANCH   9  10
HETATM   10  PA  GNP A 200      -2.383  48.704  19.015  1.00 10.32     0.418 P 
HETATM   11  O1A GNP A 200      -3.026  50.055  18.686  1.00  9.87    -0.624 OA
HETATM   12  O2A GNP A 200      -2.968  47.880  20.144  1.00 11.09    -0.624 OA
BRANCH  10  13
HETATM   13  O3A GNP A 200      -2.455  47.730  17.639  1.00  9.21    -0.185 OA
BRANCH  13  14
HETATM   14  PB  GNP A 200      -3.553  47.704  16.541  1.00  8.42     0.401 P 
HETATM   15  O1B GNP A 200      -3.088  48.736  15.593  1.00  8.14    -0.628 OA
HETATM   16  O2B GNP A 200      -4.849  47.861  17.113  1.00  8.71    -0.628 OA
BRANCH  14  17
HETATM   17  N3B GNP A 200      -3.357  46.123  15.779  1.00  9.58    -0.091 NA
BRANCH  17  18
HETATM   18  PG  GNP A 200      -3.883  45.772  14.293  1.00  9.51     0.404 P 
HETATM   19  O1G GNP A 200      -4.011  44.234  14.164  1.00 10.72    -0.621 OA
HETATM   20  O2G GNP A 200      -3.031  46.345  13.325  1.00 10.01    -0.621 OA
HETATM   21  O3G GNP A 200      -5.288  46.435  14.268  1.00 11.72    -0.621 OA
ENDBRANCH  17  18
ENDBRANCH  14  17
ENDBRANCH  13  14
ENDBRANCH  10  13
ENDBRANCH   9  10
ENDBRANCH   8   9
ENDBRANCH   1   8
BRANCH   7  22
HETATM   22  N9  GNP A 200       3.838  47.094  16.635  1.00  9.54    -0.269 N 
HETATM   23  C4  GNP A 200       3.934  45.981  17.320  1.00  9.54     0.187 A 
HETATM   24  N3  GNP A 200       3.621  45.712  18.570  1.00 10.76    -0.039 NA
HETATM   25  C5  GNP A 200       4.523  45.121  16.361  1.00  8.26     0.162 A 
HETATM   26  C2  GNP A 200       3.795  44.572  19.013  1.00  9.86     0.772 A 
HETATM   27  N1  GNP A 200       4.372  43.500  18.161  1.00 10.22    -0.029 NA
HETATM   28  N2  GNP A 200       3.560  44.068  20.181  1.00 11.49     0.062 N 
HETATM   29  C6  GNP A 200       4.700  43.827  16.915  1.00 10.19     0.251 A 
HETATM   30  O6  GNP A 200       5.258  42.854  16.145  1.00 11.17    -0.167 OA
HETATM   31  N7  GNP A 200       4.705  45.740  15.244  1.00  8.86    -0.219 NA
HETATM   32  C8  GNP A 200       4.312  47.029  15.306  1.00 11.92     0.182 A 
ENDBRANCH   7  22
TORSDOF 8
ENDMDL
MODEL 7
REMARK VINA RESULT:    -7.028      5.169      8.315
REMARK INTER + INTRA:         -10.870
REMARK INTER:                 -10.046
REMARK INTRA:                  -0.825
REMARK UNBOUND:                -0.555
REMARK  8 active torsions:
REMARK  status: ('A' for Active; 'I' for Inactive)
REMARK    1  A    between atoms: PA_1  and  O5'_5 
REMARK    2  A    between atoms: PA_1  and  O3A_24 
REMARK    3  A    between atoms: PB_2  and  N3B_23 
REMARK    4  A    between atoms: PB_2  and  O3A_24 
REMARK    5  A    between atoms: PG_3  and  N3B_23 
REMARK    6  A    between atoms: C5'_4  and  O5'_5 
REMARK    7  A    between atoms: C5'_4  and  C4'_6 
REMARK    8  A    between atoms: C1'_12  and  N9_32 
ROOT
HETATM    1  C4' GNP A 200      -0.033  49.115  18.767  1.00 11.60     0.181 C 
HETATM    2  O4' GNP A 200       1.085  48.194  18.562  1.00 10.96    -0.331 OA
HETATM    3  C3' GNP A 200       0.547  50.526  18.582  1.00 12.08     0.216 C 
HETATM    4  O3' GNP A 200       1.022  50.984  19.873  1.00 14.40    -0.218 OA
HETATM    5  C2' GNP A 200       1.760  50.268  17.635  1.00 12.17     0.234 C 
HETATM    6  O2' GNP A 200       2.879  51.184  17.793  1.00 13.60    -0.216 OA
HETATM    7  C1' GNP A 200       2.279  48.909  18.145  1.00 11.60     0.241 C 
ENDROOT
BRANCH   1   8
HETATM    8  C5' GNP A 200      -1.162  48.808  17.869  1.00 10.62     0.187 C 
BRANCH   8   9
HETATM    9  O5' GNP A 200      -1.974  47.725  18.377  1.00  9.72    -0.268 OA
BRANCH   9  10
HETATM   10  PA  GNP A 200      -3.140  47.161  17.566  1.00 10.32     0.418 P 
HETATM   11  O1A GNP A 200      -2.683  45.928  16.782  1.00  9.87    -0.624 OA
HETATM   12  O2A GNP A 200      -3.865  48.264  16.822  1.00 11.09    -0.624 OA
BRANCH  10  13
HETATM   13  O3A GNP A 200      -4.187  46.658  18.791  1.00  9.21    -0.185 OA
BRANCH  13  14
HETATM   14  PB  GNP A 200      -5.238  45.515  18.741  1.00  8.42     0.401 P 
HETATM   15  O1B GNP A 200      -6.204  45.917  19.782  1.00  8.14    -0.628 OA
HETATM   16  O2B GNP A 200      -4.613  44.241  18.868  1.00  8.71    -0.628 OA
BRANCH  14  17
HETATM   17  N3B GNP A 200      -6.009  45.715  17.164  1.00  9.58    -0.091 NA
BRANCH  17  18
HETATM   18  PG  GNP A 200      -6.761  44.523  16.375  1.00  9.51     0.404 P 
HETATM   19  O1G GNP A 200      -7.885  43.964  17.280  1.00 10.72    -0.621 OA
HETATM   20  O2G GNP A 200      -5.831  43.543  15.968  1.00 10.01    -0.621 OA
HETATM   21  O3G GNP A 200      -7.370  45.262  15.151  1.00 11.72    -0.621 OA
ENDBRANCH  17  18
ENDBRANCH  14  17
ENDBRANCH  13  14
ENDBRANCH  10  13
ENDBRANCH   9  10
ENDBRANCH   8   9
ENDBRANCH   1   8
BRANCH   7  22
HETATM   22  N9  GNP A 200       3.014  48.029  17.169  1.00  9.54    -0.269 N 
HETATM   23  C4  GNP A 200       3.601  46.891  17.444  1.00  9.54     0.187 A 
HETATM   24  N3  GNP A 200       3.677  46.214  18.571  1.00 10.76    -0.039 NA
HETATM   25  C5  GNP A 200       4.195  46.580  16.196  1.00  8.26     0.162 A 
HETATM   26  C2  GNP A 200       4.289  45.141  18.601  1.00  9.86     0.772 A 
HETATM   27  N1  GNP A 200       4.962  44.609  17.387  1.00 10.22    -0.029 NA
HETATM   28  N2  GNP A 200       4.492  44.304  19.566  1.00 11.49     0.062 N 
HETATM   29  C6  GNP A 200       4.883  45.343  16.281  1.00 10.19     0.251 A 
HETATM   30  O6  GNP A 200       5.525  44.871  15.178  1.00 11.17    -0.167 OA
HETATM   31  N7  GNP A 200       3.920  47.489  15.322  1.00  8.86    -0.219 NA
HETATM   32  C8  GNP A 200       3.173  48.485  15.841  1.00 11.92     0.182 A 
ENDBRANCH   7  22
TORSDOF 8
ENDMDL
MODEL 8
REMARK VINA RESULT:    -7.000      3.845      8.263
REMARK INTER + INTRA:         -10.828
REMARK INTER:                  -9.614
REMARK INTRA:                  -1.214
REMARK UNBOUND:                -0.555
REMARK  8 active torsions:
REMARK  status: ('A' for Active; 'I' for Inactive)
REMARK    1  A    between atoms: PA_1  and  O5'_5 
REMARK    2  A    between atoms: PA_1  and  O3A_24 
REMARK    3  A    between atoms: PB_2  and  N3B_23 
REMARK    4  A    between atoms: PB_2  and  O3A_24 
REMARK    5  A    between atoms: PG_3  and  N3B_23 
REMARK    6  A    between atoms: C5'_4  and  O5'_5 
REMARK    7  A    between atoms: C5'_4  and  C4'_6 
REMARK    8  A    between atoms: C1'_12  and  N9_32 
ROOT
HETATM    1  C4' GNP A 200       1.969  50.370  17.327  1.00 11.60     0.181 C 
HETATM    2  O4' GNP A 200       2.844  49.245  17.657  1.00 10.96    -0.331 OA
HETATM    3  C3' GNP A 200       2.131  50.597  15.816  1.00 12.08     0.216 C 
HETATM    4  O3' GNP A 200       3.224  51.528  15.620  1.00 14.40    -0.218 OA
HETATM    5  C2' GNP A 200       2.547  49.181  15.306  1.00 12.17     0.234 C 
HETATM    6  O2' GNP A 200       3.404  49.170  14.130  1.00 13.60    -0.216 OA
HETATM    7  C1' GNP A 200       3.439  48.679  16.459  1.00 11.60     0.241 C 
ENDROOT
BRANCH   1   8
HETATM    8  C5' GNP A 200       0.579  50.119  17.750  1.00 10.62     0.187 C 
BRANCH   8   9
HETATM    9  O5' GNP A 200       0.511  49.633  19.110  1.00  9.72    -0.268 OA
BRANCH   9  10
HETATM   10  PA  GNP A 200      -0.416  50.280  20.138  1.00 10.32     0.418 P 
HETATM   11  O1A GNP A 200      -1.369  49.229  20.716  1.00  9.87    -0.624 OA
HETATM   12  O2A GNP A 200      -1.002  51.570  19.602  1.00 11.09    -0.624 OA
BRANCH  10  13
HETATM   13  O3A GNP A 200       0.679  50.728  21.342  1.00  9.21    -0.185 OA
BRANCH  13  14
HETATM   14  PB  GNP A 200       2.088  51.356  21.166  1.00  8.42     0.401 P 
HETATM   15  O1B GNP A 200       1.848  52.418  20.169  1.00  8.14    -0.628 OA
HETATM   16  O2B GNP A 200       3.056  50.357  20.856  1.00  8.71    -0.628 OA
BRANCH  14  17
HETATM   17  N3B GNP A 200       2.410  52.122  22.725  1.00  9.58    -0.091 NA
BRANCH  17  18
HETATM   18  PG  GNP A 200       3.850  52.717  23.152  1.00  9.51     0.404 P 
HETATM   19  O1G GNP A 200       4.460  53.454  21.934  1.00 10.72    -0.621 OA
HETATM   20  O2G GNP A 200       4.675  51.689  23.654  1.00 10.01    -0.621 OA
HETATM   21  O3G GNP A 200       3.476  53.734  24.266  1.00 11.72    -0.621 OA
ENDBRANCH  17  18
ENDBRANCH  14  17
ENDBRANCH  13  14
ENDBRANCH  10  13
ENDBRANCH   9  10
ENDBRANCH   8   9
ENDBRANCH   1   8
BRANCH   7  22
HETATM   22  N9  GNP A 200       3.543  47.190  16.666  1.00  9.54    -0.269 N 
HETATM   23  C4  GNP A 200       4.286  46.363  15.974  1.00  9.54     0.187 A 
HETATM   24  N3  GNP A 200       5.132  46.587  14.990  1.00 10.76    -0.039 NA
HETATM   25  C5  GNP A 200       3.907  45.120  16.535  1.00  8.26     0.162 A 
HETATM   26  C2  GNP A 200       5.740  45.641  14.478  1.00  9.86     0.772 A 
HETATM   27  N1  GNP A 200       5.516  44.247  14.942  1.00 10.22    -0.029 NA
HETATM   28  N2  GNP A 200       6.613  45.607  13.524  1.00 11.49     0.062 N 
HETATM   29  C6  GNP A 200       4.631  44.068  15.918  1.00 10.19     0.251 A 
HETATM   30  O6  GNP A 200       4.403  42.789  16.320  1.00 11.17    -0.167 OA
HETATM   31  N7  GNP A 200       3.035  45.289  17.472  1.00  8.86    -0.219 NA
HETATM   32  C8  GNP A 200       2.711  46.588  17.636  1.00 11.92     0.182 A 
ENDBRANCH   7  22
TORSDOF 8
ENDMDL
MODEL 9
REMARK VINA RESULT:    -6.992      9.939     12.957
REMARK INTER + INTRA:         -10.817
REMARK INTER:                 -10.009
REMARK INTRA:                  -0.808
REMARK UNBOUND:                -0.555
REMARK  8 active torsions:
REMARK  status: ('A' for Active; 'I' for Inactive)
REMARK    1  A    between atoms: PA_1  and  O5'_5 
REMARK    2  A    between atoms: PA_1  and  O3A_24 
REMARK    3  A    between atoms: PB_2  and  N3B_23 
REMARK    4  A    between atoms: PB_2  and  O3A_24 
REMARK    5  A    between atoms: PG_3  and  N3B_23 
REMARK    6  A    between atoms: C5'_4  and  O5'_5 
REMARK    7  A    between atoms: C5'_4  and  C4'_6 
REMARK    8  A    between atoms: C1'_12  and  N9_32 
ROOT
HETATM    1  C4' GNP A 200       0.084  48.830   9.329  1.00 11.60     0.181 C 
HETATM    2  O4' GNP A 200       0.873  48.325   8.205  1.00 10.96    -0.331 OA
HETATM    3  C3' GNP A 200       0.715  50.177   9.713  1.00 12.08     0.216 C 
HETATM    4  O3' GNP A 200       1.752  49.920  10.693  1.00 14.40    -0.218 OA
HETATM    5  C2' GNP A 200       1.363  50.639   8.370  1.00 12.17     0.234 C 
HETATM    6  O2' GNP A 200       2.556  51.461   8.504  1.00 13.60    -0.216 OA
HETATM    7  C1' GNP A 200       1.861  49.303   7.782  1.00 11.60     0.241 C 
ENDROOT
BRANCH   1   8
HETATM    8  C5' GNP A 200      -1.349  48.913   8.993  1.00 10.62     0.187 C 
BRANCH   8   9
HETATM    9  O5' GNP A 200      -2.124  47.909   9.687  1.00  9.72    -0.268 OA
BRANCH   9  10
HETATM   10  PA  GNP A 200      -3.555  47.579   9.266  1.00 10.32     0.418 P 
HETATM   11  O1A GNP A 200      -3.564  46.335   8.372  1.00  9.87    -0.624 OA
HETATM   12  O2A GNP A 200      -4.276  48.821   8.783  1.00 11.09    -0.624 OA
BRANCH  10  13
HETATM   13  O3A GNP A 200      -4.257  47.178  10.748  1.00  9.21    -0.185 OA
BRANCH  13  14
HETATM   14  PB  GNP A 200      -3.627  46.371  11.916  1.00  8.42     0.401 P 
HETATM   15  O1B GNP A 200      -2.843  47.396  12.632  1.00  8.14    -0.628 OA
HETATM   16  O2B GNP A 200      -2.936  45.223  11.429  1.00  8.71    -0.628 OA
BRANCH  14  17
HETATM   17  N3B GNP A 200      -5.010  45.928  12.921  1.00  9.58    -0.091 NA
BRANCH  17  18
HETATM   18  PG  GNP A 200      -4.886  45.114  14.311  1.00  9.51     0.404 P 
HETATM   19  O1G GNP A 200      -3.599  45.573  15.039  1.00 10.72    -0.621 OA
HETATM   20  O2G GNP A 200      -4.925  43.724  14.068  1.00 10.01    -0.621 OA
HETATM   21  O3G GNP A 200      -6.144  45.585  15.091  1.00 11.72    -0.621 OA
ENDBRANCH  17  18
ENDBRANCH  14  17
ENDBRANCH  13  14
ENDBRANCH  10  13
ENDBRANCH   9  10
ENDBRANCH   8   9
ENDBRANCH   1   8
BRANCH   7  22
HETATM   22  N9  GNP A 200       1.985  49.200   6.284  1.00  9.54    -0.269 N 
HETATM   23  C4  GNP A 200       1.026  49.399   5.414  1.00  9.54     0.187 A 
HETATM   24  N3  GNP A 200      -0.228  49.762   5.586  1.00 10.76    -0.039 NA
HETATM   25  C5  GNP A 200       1.683  49.071   4.203  1.00  8.26     0.162 A 
HETATM   26  C2  GNP A 200      -0.967  49.896   4.604  1.00  9.86     0.772 A 
HETATM   27  N1  GNP A 200      -0.467  49.635   3.229  1.00 10.22    -0.029 NA
HETATM   28  N2  GNP A 200      -2.209  50.247   4.516  1.00 11.49     0.062 N 
HETATM   29  C6  GNP A 200       0.798  49.242   3.108  1.00 10.19     0.251 A 
HETATM   30  O6  GNP A 200       1.245  48.972   1.853  1.00 11.17    -0.167 OA
HETATM   31  N7  GNP A 200       2.910  48.740   4.426  1.00  8.86    -0.219 NA
HETATM   32  C8  GNP A 200       3.216  48.773   5.739  1.00 11.92     0.182 A 
ENDBRANCH   7  22
TORSDOF 8
ENDMDL
