MODEL 1
REMARK VINA RESULT:    -5.856      0.000      0.000
REMARK INTER + INTRA:          -9.733
REMARK INTER:                  -8.595
REMARK INTRA:                  -1.138
REMARK UNBOUND:                -1.138
REMARK  8 active torsions:
REMARK  status: ('A' for Active; 'I' for Inactive)
REMARK    1  A    between atoms: PA_1  and  O5'_5 
REMARK    2  A    between atoms: PA_1  and  O3A_24 
REMARK    3  A    between atoms: PB_2  and  N3B_23 
REMARK    4  A    between atoms: PB_2  and  O3A_24 
REMARK    5  A    between atoms: PG_3  and  N3B_23 
REMARK    6  A    between atoms: C5'_4  and  O5'_5 
REMARK    7  A    between atoms: C5'_4  and  C4'_6 
REMARK    8  A    between atoms: C1'_12  and  N9_32 
ROOT
HETATM    1  C4' GNP A 200       9.691  27.638  -4.331  1.00 11.60     0.181 C 
HETATM    2  O4' GNP A 200      10.639  27.338  -3.257  1.00 10.96    -0.331 OA
HETATM    3  C3' GNP A 200       9.989  26.626  -5.448  1.00 12.08     0.216 C 
HETATM    4  O3' GNP A 200      10.994  27.206  -6.317  1.00 14.40    -0.218 OA
HETATM    5  C2' GNP A 200      10.602  25.426  -4.660  1.00 12.17     0.234 C 
HETATM    6  O2' GNP A 200      11.576  24.633  -5.393  1.00 13.60    -0.216 OA
HETATM    7  C1' GNP A 200      11.414  26.148  -3.565  1.00 11.60     0.241 C 
ENDROOT
BRANCH   1   8
HETATM    8  C5' GNP A 200       8.298  27.608  -3.849  1.00 10.62     0.187 C 
BRANCH   8   9
HETATM    9  O5' GNP A 200       8.020  28.698  -2.940  1.00  9.72    -0.268 OA
BRANCH   9  10
HETATM   10  PA  GNP A 200       7.421  30.012  -3.439  1.00 10.32     0.418 P 
HETATM   11  O1A GNP A 200       6.631  30.686  -2.313  1.00  9.87    -0.624 OA
HETATM   12  O2A GNP A 200       6.748  29.825  -4.783  1.00 11.09    -0.624 OA
BRANCH  10  13
HETATM   13  O3A GNP A 200       8.812  30.923  -3.735  1.00  9.21    -0.185 OA
BRANCH  13  14
HETATM   14  PB  GNP A 200       8.959  32.176  -4.639  1.00  8.42     0.401 P 
HETATM   15  O1B GNP A 200      10.075  32.905  -4.005  1.00  8.14    -0.628 OA
HETATM   16  O2B GNP A 200       7.713  32.855  -4.778  1.00  8.71    -0.628 OA
BRANCH  14  17
HETATM   17  N3B GNP A 200       9.528  31.525  -6.180  1.00  9.58    -0.091 NA
BRANCH  17  18
HETATM   18  PG  GNP A 200       9.773  32.424  -7.498  1.00  9.51     0.404 P 
HETATM   19  O1G GNP A 200      10.841  33.497  -7.173  1.00 10.72    -0.621 OA
HETATM   20  O2G GNP A 200       8.554  32.969  -7.953  1.00 10.01    -0.621 OA
HETATM   21  O3G GNP A 200      10.339  31.390  -8.511  1.00 11.72    -0.621 OA
ENDBRANCH  17  18
ENDBRANCH  14  17
ENDBRANCH  13  14
ENDBRANCH  10  13
ENDBRANCH   9  10
ENDBRANCH   8   9
ENDBRANCH   1   8
BRANCH   7  22
HETATM   22  N9  GNP A 200      11.650  25.415  -2.271  1.00  9.54    -0.269 N 
HETATM   23  C4  GNP A 200      12.813  25.064  -1.781  1.00  9.54     0.187 A 
HETATM   24  N3  GNP A 200      14.033  25.274  -2.231  1.00 10.76    -0.039 NA
HETATM   25  C5  GNP A 200      12.418  24.337  -0.632  1.00  8.26     0.162 A 
HETATM   26  C2  GNP A 200      15.002  24.851  -1.593  1.00  9.86     0.772 A 
HETATM   27  N1  GNP A 200      14.813  24.086  -0.332  1.00 10.22    -0.029 NA
HETATM   28  N2  GNP A 200      16.273  24.937  -1.819  1.00 11.49     0.062 N 
HETATM   29  C6  GNP A 200      13.563  23.874   0.066  1.00 10.19     0.251 A 
HETATM   30  O6  GNP A 200      13.390  23.147   1.203  1.00 11.17    -0.167 OA
HETATM   31  N7  GNP A 200      11.133  24.324  -0.520  1.00  8.86    -0.219 NA
HETATM   32  C8  GNP A 200      10.527  24.979  -1.532  1.00 11.92     0.182 A 
ENDBRANCH   7  22
TORSDOF 8
ENDMDL
MODEL 2
REMARK VINA RESULT:    -5.826      8.109     10.058
REMARK INTER + INTRA:          -9.690
REMARK INTER:                  -8.841
REMARK INTRA:                  -0.849
REMARK UNBOUND:                -1.138
REMARK  8 active torsions:
REMARK  status: ('A' for Active; 'I' for Inactive)
REMARK    1  A    between atoms: PA_1  and  O5'_5 
REMARK    2  A    between atoms: PA_1  and  O3A_24 
REMARK    3  A    between atoms: PB_2  and  N3B_23 
REMARK    4  A    between atoms: PB_2  and  O3A_24 
REMARK    5  A    between atoms: PG_3  and  N3B_23 
REMARK    6  A    between atoms: C5'_4  and  O5'_5 
REMARK    7  A    between atoms: C5'_4  and  C4'_6 
REMARK    8  A    between atoms: C1'_12  and  N9_32 
ROOT
HETATM    1  C4' GNP A 200      19.218  30.201   0.498  1.00 11.60     0.181 C 
HETATM    2  O4' GNP A 200      18.125  29.230   0.439  1.00 10.96    -0.331 OA
HETATM    3  C3' GNP A 200      20.508  29.392   0.294  1.00 12.08     0.216 C 
HETATM    4  O3' GNP A 200      20.969  28.954   1.596  1.00 14.40    -0.218 OA
HETATM    5  C2' GNP A 200      20.008  28.163  -0.529  1.00 12.17     0.234 C 
HETATM    6  O2' GNP A 200      20.750  26.929  -0.318  1.00 13.60    -0.216 OA
HETATM    7  C1' GNP A 200      18.620  27.908   0.094  1.00 11.60     0.241 C 
ENDROOT
BRANCH   1   8
HETATM    8  C5' GNP A 200      19.031  31.288  -0.480  1.00 10.62     0.187 C 
BRANCH   8   9
HETATM    9  O5' GNP A 200      18.985  32.584   0.160  1.00  9.72    -0.268 OA
BRANCH   9  10
HETATM   10  PA  GNP A 200      18.059  33.688  -0.350  1.00 10.32     0.418 P 
HETATM   11  O1A GNP A 200      17.744  34.669   0.782  1.00  9.87    -0.624 OA
HETATM   12  O2A GNP A 200      16.908  33.105  -1.144  1.00 11.09    -0.624 OA
BRANCH  10  13
HETATM   13  O3A GNP A 200      19.052  34.467  -1.471  1.00  9.21    -0.185 OA
BRANCH  13  14
HETATM   14  PB  GNP A 200      20.183  35.496  -1.194  1.00  8.42     0.401 P 
HETATM   15  O1B GNP A 200      20.735  35.742  -2.541  1.00  8.14    -0.628 OA
HETATM   16  O2B GNP A 200      21.071  35.019  -0.187  1.00  8.71    -0.628 OA
BRANCH  14  17
HETATM   17  N3B GNP A 200      19.319  36.948  -0.676  1.00  9.58    -0.091 NA
BRANCH  17  18
HETATM   18  PG  GNP A 200      19.725  38.443  -1.132  1.00  9.51     0.404 P 
HETATM   19  O1G GNP A 200      19.310  38.639  -2.611  1.00 10.72    -0.621 OA
HETATM   20  O2G GNP A 200      21.099  38.669  -0.902  1.00 10.01    -0.621 OA
HETATM   21  O3G GNP A 200      18.847  39.327  -0.203  1.00 11.72    -0.621 OA
ENDBRANCH  17  18
ENDBRANCH  14  17
ENDBRANCH  13  14
ENDBRANCH  10  13
ENDBRANCH   9  10
ENDBRANCH   8   9
ENDBRANCH   1   8
BRANCH   7  22
HETATM   22  N9  GNP A 200      17.577  27.246  -0.768  1.00  9.54    -0.269 N 
HETATM   23  C4  GNP A 200      16.529  26.586  -0.343  1.00  9.54     0.187 A 
HETATM   24  N3  GNP A 200      16.092  26.362   0.879  1.00 10.76    -0.039 NA
HETATM   25  C5  GNP A 200      15.987  26.117  -1.565  1.00  8.26     0.162 A 
HETATM   26  C2  GNP A 200      15.058  25.707   1.049  1.00  9.86     0.772 A 
HETATM   27  N1  GNP A 200      14.308  25.147  -0.105  1.00 10.22    -0.029 NA
HETATM   28  N2  GNP A 200      14.435  25.368   2.131  1.00 11.49     0.062 N 
HETATM   29  C6  GNP A 200      14.805  25.374  -1.317  1.00 10.19     0.251 A 
HETATM   30  O6  GNP A 200      14.135  24.834  -2.371  1.00 11.17    -0.167 OA
HETATM   31  N7  GNP A 200      16.698  26.522  -2.563  1.00  8.86    -0.219 NA
HETATM   32  C8  GNP A 200      17.762  27.249  -2.168  1.00 11.92     0.182 A 
ENDBRANCH   7  22
TORSDOF 8
ENDMDL
MODEL 3
REMARK VINA RESULT:    -5.826     11.659     14.027
REMARK INTER + INTRA:          -9.689
REMARK INTER:                  -8.206
REMARK INTRA:                  -1.484
REMARK UNBOUND:                -1.138
REMARK  8 active torsions:
REMARK  status: ('A' for Active; 'I' for Inactive)
REMARK    1  A    between atoms: PA_1  and  O5'_5 
REMARK    2  A    between atoms: PA_1  and  O3A_24 
REMARK    3  A    between atoms: PB_2  and  N3B_23 
REMARK    4  A    between atoms: PB_2  and  O3A_24 
REMARK    5  A    between atoms: PG_3  and  N3B_23 
REMARK    6  A    between atoms: C5'_4  and  O5'_5 
REMARK    7  A    between atoms: C5'_4  and  C4'_6 
REMARK    8  A    between atoms: C1'_12  and  N9_32 
ROOT
HETATM    1  C4' GNP A 200      18.811  34.096  -4.011  1.00 11.60     0.181 C 
HETATM    2  O4' GNP A 200      18.578  35.523  -3.786  1.00 10.96    -0.331 OA
HETATM    3  C3' GNP A 200      20.334  33.934  -4.128  1.00 12.08     0.216 C 
HETATM    4  O3' GNP A 200      20.695  34.105  -5.521  1.00 14.40    -0.218 OA
HETATM    5  C2' GNP A 200      20.866  35.142  -3.294  1.00 12.17     0.234 C 
HETATM    6  O2' GNP A 200      22.145  35.682  -3.726  1.00 13.60    -0.216 OA
HETATM    7  C1' GNP A 200      19.833  36.237  -3.630  1.00 11.60     0.241 C 
ENDROOT
BRANCH   1   8
HETATM    8  C5' GNP A 200      18.199  33.272  -2.953  1.00 10.62     0.187 C 
BRANCH   8   9
HETATM    9  O5' GNP A 200      18.001  34.023  -1.733  1.00  9.72    -0.268 OA
BRANCH   9  10
HETATM   10  PA  GNP A 200      18.551  33.526  -0.398  1.00 10.32     0.418 P 
HETATM   11  O1A GNP A 200      17.716  34.092   0.755  1.00  9.87    -0.624 OA
HETATM   12  O2A GNP A 200      20.058  33.679  -0.342  1.00 11.09    -0.624 OA
BRANCH  10  13
HETATM   13  O3A GNP A 200      18.254  31.868  -0.509  1.00  9.21    -0.185 OA
BRANCH  13  14
HETATM   14  PB  GNP A 200      19.186  30.699  -0.089  1.00  8.42     0.401 P 
HETATM   15  O1B GNP A 200      18.355  29.509  -0.358  1.00  8.14    -0.628 OA
HETATM   16  O2B GNP A 200      19.673  30.886   1.237  1.00  8.71    -0.628 OA
BRANCH  14  17
HETATM   17  N3B GNP A 200      20.489  30.746  -1.281  1.00  9.58    -0.091 NA
BRANCH  17  18
HETATM   18  PG  GNP A 200      22.025  30.374  -0.946  1.00  9.51     0.404 P 
HETATM   19  O1G GNP A 200      22.594  31.448   0.014  1.00 10.72    -0.621 OA
HETATM   20  O2G GNP A 200      22.767  30.240  -2.138  1.00 10.01    -0.621 OA
HETATM   21  O3G GNP A 200      21.889  29.012  -0.212  1.00 11.72    -0.621 OA
ENDBRANCH  17  18
ENDBRANCH  14  17
ENDBRANCH  13  14
ENDBRANCH  10  13
ENDBRANCH   9  10
ENDBRANCH   8   9
ENDBRANCH   1   8
BRANCH   7  22
HETATM   22  N9  GNP A 200      19.611  37.325  -2.611  1.00  9.54    -0.269 N 
HETATM   23  C4  GNP A 200      19.020  38.474  -2.824  1.00  9.54     0.187 A 
HETATM   24  N3  GNP A 200      18.454  38.961  -3.908  1.00 10.76    -0.039 NA
HETATM   25  C5  GNP A 200      19.190  39.106  -1.568  1.00  8.26     0.162 A 
HETATM   26  C2  GNP A 200      17.945  40.086  -3.881  1.00  9.86     0.772 A 
HETATM   27  N1  GNP A 200      17.980  40.912  -2.646  1.00 10.22    -0.029 NA
HETATM   28  N2  GNP A 200      17.332  40.766  -4.796  1.00 11.49     0.062 N 
HETATM   29  C6  GNP A 200      18.590  40.391  -1.585  1.00 10.19     0.251 A 
HETATM   30  O6  GNP A 200      18.650  41.160  -0.465  1.00 11.17    -0.167 OA
HETATM   31  N7  GNP A 200      19.813  38.328  -0.747  1.00  8.86    -0.219 NA
HETATM   32  C8  GNP A 200      20.149  37.153  -1.316  1.00 11.92     0.182 A 
ENDBRANCH   7  22
TORSDOF 8
ENDMDL
MODEL 4
REMARK VINA RESULT:    -5.717      5.782      8.229
REMARK INTER + INTRA:          -9.529
REMARK INTER:                  -8.424
REMARK INTRA:                  -1.105
REMARK UNBOUND:                -1.138
REMARK  8 active torsions:
REMARK  status: ('A' for Active; 'I' for Inactive)
REMARK    1  A    between atoms: PA_1  and  O5'_5 
REMARK    2  A    between atoms: PA_1  and  O3A_24 
REMARK    3  A    between atoms: PB_2  and  N3B_23 
REMARK    4  A    between atoms: PB_2  and  O3A_24 
REMARK    5  A    between atoms: PG_3  and  N3B_23 
REMARK    6  A    between atoms: C5'_4  and  O5'_5 
REMARK    7  A    between atoms: C5'_4  and  C4'_6 
REMARK    8  A    between atoms: C1'_12  and  N9_32 
ROOT
HETATM    1  C4' GNP A 200       6.798  32.285  -8.493  1.00 11.60     0.181 C 
HETATM    2  O4' GNP A 200       6.851  32.612  -7.068  1.00 10.96    -0.331 OA
HETATM    3  C3' GNP A 200       8.253  32.041  -8.922  1.00 12.08     0.216 C 
HETATM    4  O3' GNP A 200       8.812  33.311  -9.342  1.00 14.40    -0.218 OA
HETATM    5  C2' GNP A 200       8.924  31.586  -7.588  1.00 12.17     0.234 C 
HETATM    6  O2' GNP A 200      10.334  31.920  -7.454  1.00 13.60    -0.216 OA
HETATM    7  C1' GNP A 200       8.201  32.470  -6.551  1.00 11.60     0.241 C 
ENDROOT
BRANCH   1   8
HETATM    8  C5' GNP A 200       5.896  31.149  -8.757  1.00 10.62     0.187 C 
BRANCH   8   9
HETATM    9  O5' GNP A 200       4.877  31.024  -7.738  1.00  9.72    -0.268 OA
BRANCH   9  10
HETATM   10  PA  GNP A 200       3.410  31.324  -8.044  1.00 10.32     0.418 P 
HETATM   11  O1A GNP A 200       2.580  31.229  -6.761  1.00  9.87    -0.624 OA
HETATM   12  O2A GNP A 200       2.944  30.558  -9.265  1.00 11.09    -0.624 OA
BRANCH  10  13
HETATM   13  O3A GNP A 200       3.489  32.944  -8.510  1.00  9.21    -0.185 OA
BRANCH  13  14
HETATM   14  PB  GNP A 200       2.421  33.772  -9.276  1.00  8.42     0.401 P 
HETATM   15  O1B GNP A 200       1.153  33.245  -8.733  1.00  8.14    -0.628 OA
HETATM   16  O2B GNP A 200       2.627  33.693 -10.684  1.00  8.71    -0.628 OA
BRANCH  14  17
HETATM   17  N3B GNP A 200       2.642  35.416  -8.669  1.00  9.58    -0.091 NA
BRANCH  17  18
HETATM   18  PG  GNP A 200       1.455  36.508  -8.584  1.00  9.51     0.404 P 
HETATM   19  O1G GNP A 200       2.087  37.916  -8.464  1.00 10.72    -0.621 OA
HETATM   20  O2G GNP A 200       0.578  36.196  -7.523  1.00 10.01    -0.621 OA
HETATM   21  O3G GNP A 200       0.751  36.348  -9.960  1.00 11.72    -0.621 OA
ENDBRANCH  17  18
ENDBRANCH  14  17
ENDBRANCH  13  14
ENDBRANCH  10  13
ENDBRANCH   9  10
ENDBRANCH   8   9
ENDBRANCH   1   8
BRANCH   7  22
HETATM   22  N9  GNP A 200       8.093  31.949  -5.142  1.00  9.54    -0.269 N 
HETATM   23  C4  GNP A 200       7.736  30.739  -4.790  1.00  9.54     0.187 A 
HETATM   24  N3  GNP A 200       7.430  29.687  -5.521  1.00 10.76    -0.039 NA
HETATM   25  C5  GNP A 200       7.716  30.859  -3.379  1.00  8.26     0.162 A 
HETATM   26  C2  GNP A 200       7.122  28.626  -4.968  1.00  9.86     0.772 A 
HETATM   27  N1  GNP A 200       7.072  28.522  -3.486  1.00 10.22    -0.029 NA
HETATM   28  N2  GNP A 200       6.797  27.474  -5.459  1.00 11.49     0.062 N 
HETATM   29  C6  GNP A 200       7.360  29.618  -2.792  1.00 10.19     0.251 A 
HETATM   30  O6  GNP A 200       7.282  29.530  -1.437  1.00 11.17    -0.167 OA
HETATM   31  N7  GNP A 200       8.057  32.050  -3.018  1.00  8.86    -0.219 NA
HETATM   32  C8  GNP A 200       8.311  32.849  -4.075  1.00 11.92     0.182 A 
ENDBRANCH   7  22
TORSDOF 8
ENDMDL
MODEL 5
REMARK VINA RESULT:    -5.700     11.620     14.217
REMARK INTER + INTRA:          -9.504
REMARK INTER:                  -7.935
REMARK INTRA:                  -1.568
REMARK UNBOUND:                -1.138
REMARK  8 active torsions:
REMARK  status: ('A' for Active; 'I' for Inactive)
REMARK    1  A    between atoms: PA_1  and  O5'_5 
REMARK    2  A    between atoms: PA_1  and  O3A_24 
REMARK    3  A    between atoms: PB_2  and  N3B_23 
REMARK    4  A    between atoms: PB_2  and  O3A_24 
REMARK    5  A    between atoms: PG_3  and  N3B_23 
REMARK    6  A    between atoms: C5'_4  and  O5'_5 
REMARK    7  A    between atoms: C5'_4  and  C4'_6 
REMARK    8  A    between atoms: C1'_12  and  N9_32 
ROOT
HETATM    1  C4' GNP A 200      21.741  35.917  -2.228  1.00 11.60     0.181 C 
HETATM    2  O4' GNP A 200      21.308  37.289  -1.962  1.00 10.96    -0.331 OA
HETATM    3  C3' GNP A 200      20.820  35.017  -1.390  1.00 12.08     0.216 C 
HETATM    4  O3' GNP A 200      21.431  34.846  -0.086  1.00 14.40    -0.218 OA
HETATM    5  C2' GNP A 200      19.531  35.888  -1.256  1.00 12.17     0.234 C 
HETATM    6  O2' GNP A 200      18.765  35.684  -0.037  1.00 13.60    -0.216 OA
HETATM    7  C1' GNP A 200      20.119  37.308  -1.128  1.00 11.60     0.241 C 
ENDROOT
BRANCH   1   8
HETATM    8  C5' GNP A 200      21.727  35.612  -3.670  1.00 10.62     0.187 C 
BRANCH   8   9
HETATM    9  O5' GNP A 200      21.458  34.213  -3.921  1.00  9.72    -0.268 OA
BRANCH   9  10
HETATM   10  PA  GNP A 200      20.906  33.740  -5.265  1.00 10.32     0.418 P 
HETATM   11  O1A GNP A 200      22.041  33.179  -6.127  1.00  9.87    -0.624 OA
HETATM   12  O2A GNP A 200      19.986  34.781  -5.869  1.00 11.09    -0.624 OA
BRANCH  10  13
HETATM   13  O3A GNP A 200      19.915  32.460  -4.789  1.00  9.21    -0.185 OA
BRANCH  13  14
HETATM   14  PB  GNP A 200      18.774  32.475  -3.736  1.00  8.42     0.401 P 
HETATM   15  O1B GNP A 200      17.895  31.380  -4.193  1.00  8.14    -0.628 OA
HETATM   16  O2B GNP A 200      18.208  33.778  -3.616  1.00  8.71    -0.628 OA
BRANCH  14  17
HETATM   17  N3B GNP A 200      19.566  31.962  -2.242  1.00  9.58    -0.091 NA
BRANCH  17  18
HETATM   18  PG  GNP A 200      18.776  31.655  -0.868  1.00  9.51     0.404 P 
HETATM   19  O1G GNP A 200      17.527  32.567  -0.801  1.00 10.72    -0.621 OA
HETATM   20  O2G GNP A 200      19.640  31.809   0.238  1.00 10.01    -0.621 OA
HETATM   21  O3G GNP A 200      18.352  30.171  -1.048  1.00 11.72    -0.621 OA
ENDBRANCH  17  18
ENDBRANCH  14  17
ENDBRANCH  13  14
ENDBRANCH  10  13
ENDBRANCH   9  10
ENDBRANCH   8   9
ENDBRANCH   1   8
BRANCH   7  22
HETATM   22  N9  GNP A 200      19.266  38.463  -1.584  1.00  9.54    -0.269 N 
HETATM   23  C4  GNP A 200      18.845  38.677  -2.805  1.00  9.54     0.187 A 
HETATM   24  N3  GNP A 200      19.002  37.970  -3.905  1.00 10.76    -0.039 NA
HETATM   25  C5  GNP A 200      18.194  39.927  -2.655  1.00  8.26     0.162 A 
HETATM   26  C2  GNP A 200      18.505  38.367  -4.964  1.00  9.86     0.772 A 
HETATM   27  N1  GNP A 200      17.747  39.644  -5.023  1.00 10.22    -0.029 NA
HETATM   28  N2  GNP A 200      18.512  37.854  -6.152  1.00 11.49     0.062 N 
HETATM   29  C6  GNP A 200      17.640  40.338  -3.894  1.00 10.19     0.251 A 
HETATM   30  O6  GNP A 200      16.974  41.522  -3.956  1.00 11.17    -0.167 OA
HETATM   31  N7  GNP A 200      18.258  40.328  -1.430  1.00  8.86    -0.219 NA
HETATM   32  C8  GNP A 200      18.940  39.468  -0.647  1.00 11.92     0.182 A 
ENDBRANCH   7  22
TORSDOF 8
ENDMDL
MODEL 6
REMARK VINA RESULT:    -5.689      5.389      8.291
REMARK INTER + INTRA:          -9.489
REMARK INTER:                  -7.423
REMARK INTRA:                  -2.066
REMARK UNBOUND:                -1.138
REMARK  8 active torsions:
REMARK  status: ('A' for Active; 'I' for Inactive)
REMARK    1  A    between atoms: PA_1  and  O5'_5 
REMARK    2  A    between atoms: PA_1  and  O3A_24 
REMARK    3  A    between atoms: PB_2  and  N3B_23 
REMARK    4  A    between atoms: PB_2  and  O3A_24 
REMARK    5  A    between atoms: PG_3  and  N3B_23 
REMARK    6  A    between atoms: C5'_4  and  O5'_5 
REMARK    7  A    between atoms: C5'_4  and  C4'_6 
REMARK    8  A    between atoms: C1'_12  and  N9_32 
ROOT
HETATM    1  C4' GNP A 200       4.185  28.598  -7.591  1.00 11.60     0.181 C 
HETATM    2  O4' GNP A 200       5.010  29.249  -6.573  1.00 10.96    -0.331 OA
HETATM    3  C3' GNP A 200       3.292  29.703  -8.177  1.00 12.08     0.216 C 
HETATM    4  O3' GNP A 200       2.080  29.763  -7.384  1.00 14.40    -0.218 OA
HETATM    5  C2' GNP A 200       4.145  30.988  -7.933  1.00 12.17     0.234 C 
HETATM    6  O2' GNP A 200       3.384  32.211  -7.729  1.00 13.60    -0.216 OA
HETATM    7  C1' GNP A 200       4.790  30.685  -6.565  1.00 11.60     0.241 C 
ENDROOT
BRANCH   1   8
HETATM    8  C5' GNP A 200       5.010  27.900  -8.594  1.00 10.62     0.187 C 
BRANCH   8   9
HETATM    9  O5' GNP A 200       6.373  28.383  -8.599  1.00  9.72    -0.268 OA
BRANCH   9  10
HETATM   10  PA  GNP A 200       7.552  27.433  -8.389  1.00 10.32     0.418 P 
HETATM   11  O1A GNP A 200       8.716  27.837  -9.297  1.00  9.87    -0.624 OA
HETATM   12  O2A GNP A 200       7.092  25.990  -8.400  1.00 11.09    -0.624 OA
BRANCH  10  13
HETATM   13  O3A GNP A 200       7.977  27.776  -6.791  1.00  9.21    -0.185 OA
BRANCH  13  14
HETATM   14  PB  GNP A 200       9.366  28.201  -6.242  1.00  8.42     0.401 P 
HETATM   15  O1B GNP A 200       9.479  29.602  -6.695  1.00  8.14    -0.628 OA
HETATM   16  O2B GNP A 200      10.378  27.285  -6.650  1.00  8.71    -0.628 OA
BRANCH  14  17
HETATM   17  N3B GNP A 200       9.148  28.202  -4.489  1.00  9.58    -0.091 NA
BRANCH  17  18
HETATM   18  PG  GNP A 200       8.362  27.044  -3.682  1.00  9.51     0.404 P 
HETATM   19  O1G GNP A 200       8.786  25.669  -4.252  1.00 10.72    -0.621 OA
HETATM   20  O2G GNP A 200       6.970  27.268  -3.738  1.00 10.01    -0.621 OA
HETATM   21  O3G GNP A 200       8.901  27.218  -2.235  1.00 11.72    -0.621 OA
ENDBRANCH  17  18
ENDBRANCH  14  17
ENDBRANCH  13  14
ENDBRANCH  10  13
ENDBRANCH   9  10
ENDBRANCH   8   9
ENDBRANCH   1   8
BRANCH   7  22
HETATM   22  N9  GNP A 200       6.110  31.341  -6.254  1.00  9.54    -0.269 N 
HETATM   23  C4  GNP A 200       6.746  31.294  -5.109  1.00  9.54     0.187 A 
HETATM   24  N3  GNP A 200       6.452  30.668  -3.989  1.00 10.76    -0.039 NA
HETATM   25  C5  GNP A 200       7.841  32.153  -5.369  1.00  8.26     0.162 A 
HETATM   26  C2  GNP A 200       7.211  30.760  -3.018  1.00  9.86     0.772 A 
HETATM   27  N1  GNP A 200       8.444  31.588  -3.087  1.00 10.22    -0.029 NA
HETATM   28  N2  GNP A 200       7.147  30.241  -1.836  1.00 11.49     0.062 N 
HETATM   29  C6  GNP A 200       8.682  32.226  -4.229  1.00 10.19     0.251 A 
HETATM   30  O6  GNP A 200       9.793  33.009  -4.281  1.00 11.17    -0.167 OA
HETATM   31  N7  GNP A 200       7.790  32.604  -6.577  1.00  8.86    -0.219 NA
HETATM   32  C8  GNP A 200       6.704  32.158  -7.241  1.00 11.92     0.182 A 
ENDBRANCH   7  22
TORSDOF 8
ENDMDL
MODEL 7
REMARK VINA RESULT:    -5.682      2.620      3.342
REMARK INTER + INTRA:          -9.478
REMARK INTER:                  -8.515
REMARK INTRA:                  -0.963
REMARK UNBOUND:                -1.138
REMARK  8 active torsions:
REMARK  status: ('A' for Active; 'I' for Inactive)
REMARK    1  A    between atoms: PA_1  and  O5'_5 
REMARK    2  A    between atoms: PA_1  and  O3A_24 
REMARK    3  A    between atoms: PB_2  and  N3B_23 
REMARK    4  A    between atoms: PB_2  and  O3A_24 
REMARK    5  A    between atoms: PG_3  and  N3B_23 
REMARK    6  A    between atoms: C5'_4  and  O5'_5 
REMARK    7  A    between atoms: C5'_4  and  C4'_6 
REMARK    8  A    between atoms: C1'_12  and  N9_32 
ROOT
HETATM    1  C4' GNP A 200      10.962  26.217  -2.603  1.00 11.60     0.181 C 
HETATM    2  O4' GNP A 200      10.912  25.370  -1.411  1.00 10.96    -0.331 OA
HETATM    3  C3' GNP A 200      11.363  25.290  -3.760  1.00 12.08     0.216 C 
HETATM    4  O3' GNP A 200      12.811  25.277  -3.838  1.00 14.40    -0.218 OA
HETATM    5  C2' GNP A 200      10.850  23.899  -3.270  1.00 12.17     0.234 C 
HETATM    6  O2' GNP A 200      11.613  22.753  -3.738  1.00 13.60    -0.216 OA
HETATM    7  C1' GNP A 200      11.128  23.975  -1.755  1.00 11.60     0.241 C 
ENDROOT
BRANCH   1   8
HETATM    8  C5' GNP A 200       9.688  26.927  -2.818  1.00 10.62     0.187 C 
BRANCH   8   9
HETATM    9  O5' GNP A 200       9.897  28.268  -3.319  1.00  9.72    -0.268 OA
BRANCH   9  10
HETATM   10  PA  GNP A 200       8.730  29.121  -3.814  1.00 10.32     0.418 P 
HETATM   11  O1A GNP A 200       7.694  29.285  -2.698  1.00  9.87    -0.624 OA
HETATM   12  O2A GNP A 200       8.259  28.655  -5.176  1.00 11.09    -0.624 OA
BRANCH  10  13
HETATM   13  O3A GNP A 200       9.486  30.609  -4.064  1.00  9.21    -0.185 OA
BRANCH  13  14
HETATM   14  PB  GNP A 200       8.824  31.971  -4.409  1.00  8.42     0.401 P 
HETATM   15  O1B GNP A 200       8.923  32.712  -3.136  1.00  8.14    -0.628 OA
HETATM   16  O2B GNP A 200       7.528  31.781  -4.970  1.00  8.71    -0.628 OA
BRANCH  14  17
HETATM   17  N3B GNP A 200       9.940  32.706  -5.565  1.00  9.58    -0.091 NA
BRANCH  17  18
HETATM   18  PG  GNP A 200      10.057  32.253  -7.111  1.00  9.51     0.404 P 
HETATM   19  O1G GNP A 200       9.733  30.742  -7.208  1.00 10.72    -0.621 OA
HETATM   20  O2G GNP A 200      11.329  32.586  -7.623  1.00 10.01    -0.621 OA
HETATM   21  O3G GNP A 200       8.940  33.090  -7.793  1.00 11.72    -0.621 OA
ENDBRANCH  17  18
ENDBRANCH  14  17
ENDBRANCH  13  14
ENDBRANCH  10  13
ENDBRANCH   9  10
ENDBRANCH   8   9
ENDBRANCH   1   8
BRANCH   7  22
HETATM   22  N9  GNP A 200      10.262  23.145  -0.842  1.00  9.54    -0.269 N 
HETATM   23  C4  GNP A 200      10.637  22.081  -0.178  1.00  9.54     0.187 A 
HETATM   24  N3  GNP A 200      11.812  21.492  -0.091  1.00 10.76    -0.039 NA
HETATM   25  C5  GNP A 200       9.412  21.678   0.407  1.00  8.26     0.162 A 
HETATM   26  C2  GNP A 200      11.941  20.483   0.611  1.00  9.86     0.772 A 
HETATM   27  N1  GNP A 200      10.783  19.909   1.345  1.00 10.22    -0.029 NA
HETATM   28  N2  GNP A 200      12.975  19.747   0.860  1.00 11.49     0.062 N 
HETATM   29  C6  GNP A 200       9.611  20.520   1.202  1.00 10.19     0.251 A 
HETATM   30  O6  GNP A 200       8.546  19.975   1.848  1.00 11.17    -0.167 OA
HETATM   31  N7  GNP A 200       8.463  22.491   0.083  1.00  8.86    -0.219 NA
HETATM   32  C8  GNP A 200       8.892  23.473  -0.735  1.00 11.92     0.182 A 
ENDBRANCH   7  22
TORSDOF 8
ENDMDL
MODEL 8
REMARK VINA RESULT:    -5.659     13.562     15.808
REMARK INTER + INTRA:          -9.444
REMARK INTER:                  -8.195
REMARK INTRA:                  -1.249
REMARK UNBOUND:                -1.138
REMARK  8 active torsions:
REMARK  status: ('A' for Active; 'I' for Inactive)
REMARK    1  A    between atoms: PA_1  and  O5'_5 
REMARK    2  A    between atoms: PA_1  and  O3A_24 
REMARK    3  A    between atoms: PB_2  and  N3B_23 
REMARK    4  A    between atoms: PB_2  and  O3A_24 
REMARK    5  A    between atoms: PG_3  and  N3B_23 
REMARK    6  A    between atoms: C5'_4  and  O5'_5 
REMARK    7  A    between atoms: C5'_4  and  C4'_6 
REMARK    8  A    between atoms: C1'_12  and  N9_32 
ROOT
HETATM    1  C4' GNP A 200      18.136  38.243  -3.984  1.00 11.60     0.181 C 
HETATM    2  O4' GNP A 200      18.170  39.134  -2.825  1.00 10.96    -0.331 OA
HETATM    3  C3' GNP A 200      18.682  39.065  -5.162  1.00 12.08     0.216 C 
HETATM    4  O3' GNP A 200      17.564  39.745  -5.785  1.00 14.40    -0.218 OA
HETATM    5  C2' GNP A 200      19.600  40.106  -4.447  1.00 12.17     0.234 C 
HETATM    6  O2' GNP A 200      19.721  41.392  -5.116  1.00 13.60    -0.216 OA
HETATM    7  C1' GNP A 200      18.805  40.398  -3.158  1.00 11.60     0.241 C 
ENDROOT
BRANCH   1   8
HETATM    8  C5' GNP A 200      18.878  36.994  -3.731  1.00 10.62     0.187 C 
BRANCH   8   9
HETATM    9  O5' GNP A 200      19.398  36.941  -2.382  1.00  9.72    -0.268 OA
BRANCH   9  10
HETATM   10  PA  GNP A 200      19.814  35.617  -1.744  1.00 10.32     0.418 P 
HETATM   11  O1A GNP A 200      20.395  35.870  -0.349  1.00  9.87    -0.624 OA
HETATM   12  O2A GNP A 200      20.611  34.773  -2.717  1.00 11.09    -0.624 OA
BRANCH  10  13
HETATM   13  O3A GNP A 200      18.322  34.846  -1.569  1.00  9.21    -0.185 OA
BRANCH  13  14
HETATM   14  PB  GNP A 200      17.873  33.877  -0.442  1.00  8.42     0.401 P 
HETATM   15  O1B GNP A 200      16.765  33.134  -1.075  1.00  8.14    -0.628 OA
HETATM   16  O2B GNP A 200      17.596  34.589   0.762  1.00  8.71    -0.628 OA
BRANCH  14  17
HETATM   17  N3B GNP A 200      19.242  32.777  -0.255  1.00  9.58    -0.091 NA
BRANCH  17  18
HETATM   18  PG  GNP A 200      19.425  31.419  -1.110  1.00  9.51     0.404 P 
HETATM   19  O1G GNP A 200      19.216  31.747  -2.608  1.00 10.72    -0.621 OA
HETATM   20  O2G GNP A 200      18.554  30.418  -0.629  1.00 10.01    -0.621 OA
HETATM   21  O3G GNP A 200      20.910  31.049  -0.840  1.00 11.72    -0.621 OA
ENDBRANCH  17  18
ENDBRANCH  14  17
ENDBRANCH  13  14
ENDBRANCH  10  13
ENDBRANCH   9  10
ENDBRANCH   8   9
ENDBRANCH   1   8
BRANCH   7  22
HETATM   22  N9  GNP A 200      19.579  40.848  -1.946  1.00  9.54    -0.269 N 
HETATM   23  C4  GNP A 200      19.554  42.045  -1.414  1.00  9.54     0.187 A 
HETATM   24  N3  GNP A 200      18.861  43.116  -1.741  1.00 10.76    -0.039 NA
HETATM   25  C5  GNP A 200      20.527  41.911  -0.394  1.00  8.26     0.162 A 
HETATM   26  C2  GNP A 200      18.994  44.155  -1.085  1.00  9.86     0.772 A 
HETATM   27  N1  GNP A 200      19.943  44.223   0.057  1.00 10.22    -0.029 NA
HETATM   28  N2  GNP A 200      18.427  45.312  -1.201  1.00 11.49     0.062 N 
HETATM   29  C6  GNP A 200      20.642  43.126   0.329  1.00 10.19     0.251 A 
HETATM   30  O6  GNP A 200      21.534  43.198   1.354  1.00 11.17    -0.167 OA
HETATM   31  N7  GNP A 200      21.014  40.716  -0.383  1.00  8.86    -0.219 NA
HETATM   32  C8  GNP A 200      20.486  39.942  -1.354  1.00 11.92     0.182 A 
ENDBRANCH   7  22
TORSDOF 8
ENDMDL
MODEL 9
REMARK VINA RESULT:    -5.506      8.678     10.660
REMARK INTER + INTRA:          -9.220
REMARK INTER:                  -8.263
REMARK INTRA:                  -0.957
REMARK UNBOUND:                -1.138
REMARK  8 active torsions:
REMARK  status: ('A' for Active; 'I' for Inactive)
REMARK    1  A    between atoms: PA_1  and  O5'_5 
REMARK    2  A    between atoms: PA_1  and  O3A_24 
REMARK    3  A    between atoms: PB_2  and  N3B_23 
REMARK    4  A    between atoms: PB_2  and  O3A_24 
REMARK    5  A    between atoms: PG_3  and  N3B_23 
REMARK    6  A    between atoms: C5'_4  and  O5'_5 
REMARK    7  A    between atoms: C5'_4  and  C4'_6 
REMARK    8  A    between atoms: C1'_12  and  N9_32 
ROOT
HETATM    1  C4' GNP A 200      19.626  31.730   0.095  1.00 11.60     0.181 C 
HETATM    2  O4' GNP A 200      18.494  31.047  -0.530  1.00 10.96    -0.331 OA
HETATM    3  C3' GNP A 200      20.614  30.624   0.496  1.00 12.08     0.216 C 
HETATM    4  O3' GNP A 200      20.273  30.187   1.836  1.00 14.40    -0.218 OA
HETATM    5  C2' GNP A 200      20.283  29.492  -0.527  1.00 12.17     0.234 C 
HETATM    6  O2' GNP A 200      20.506  28.136  -0.049  1.00 13.60    -0.216 OA
HETATM    7  C1' GNP A 200      18.753  29.623  -0.662  1.00 11.60     0.241 C 
ENDROOT
BRANCH   1   8
HETATM    8  C5' GNP A 200      20.202  32.754  -0.796  1.00 10.62     0.187 C 
BRANCH   8   9
HETATM    9  O5' GNP A 200      19.889  34.093  -0.348  1.00  9.72    -0.268 OA
BRANCH   9  10
HETATM   10  PA  GNP A 200      18.488  34.679  -0.517  1.00 10.32     0.418 P 
HETATM   11  O1A GNP A 200      17.688  34.502   0.778  1.00  9.87    -0.624 OA
HETATM   12  O2A GNP A 200      17.864  34.223  -1.820  1.00 11.09    -0.624 OA
BRANCH  10  13
HETATM   13  O3A GNP A 200      18.832  36.320  -0.712  1.00  9.21    -0.185 OA
BRANCH  13  14
HETATM   14  PB  GNP A 200      19.981  36.965  -1.534  1.00  8.42     0.401 P 
HETATM   15  O1B GNP A 200      20.113  36.046  -2.682  1.00  8.14    -0.628 OA
HETATM   16  O2B GNP A 200      21.130  37.183  -0.720  1.00  8.71    -0.628 OA
BRANCH  14  17
HETATM   17  N3B GNP A 200      19.288  38.482  -2.115  1.00  9.58    -0.091 NA
BRANCH  17  18
HETATM   18  PG  GNP A 200      19.076  39.786  -1.185  1.00  9.51     0.404 P 
HETATM   19  O1G GNP A 200      20.446  40.479  -0.986  1.00 10.72    -0.621 OA
HETATM   20  O2G GNP A 200      18.450  39.426   0.027  1.00 10.01    -0.621 OA
HETATM   21  O3G GNP A 200      18.145  40.673  -2.057  1.00 11.72    -0.621 OA
ENDBRANCH  17  18
ENDBRANCH  14  17
ENDBRANCH  13  14
ENDBRANCH  10  13
ENDBRANCH   9  10
ENDBRANCH   8   9
ENDBRANCH   1   8
BRANCH   7  22
HETATM   22  N9  GNP A 200      18.122  29.166  -1.951  1.00  9.54    -0.269 N 
HETATM   23  C4  GNP A 200      17.619  27.981  -2.188  1.00  9.54     0.187 A 
HETATM   24  N3  GNP A 200      17.491  26.929  -1.405  1.00 10.76    -0.039 NA
HETATM   25  C5  GNP A 200      17.276  28.098  -3.557  1.00  8.26     0.162 A 
HETATM   26  C2  GNP A 200      16.972  25.898  -1.845  1.00  9.86     0.772 A 
HETATM   27  N1  GNP A 200      16.507  25.816  -3.254  1.00 10.22    -0.029 NA
HETATM   28  N2  GNP A 200      16.731  24.760  -1.279  1.00 11.49     0.062 N 
HETATM   29  C6  GNP A 200      16.684  26.892  -4.014  1.00 10.19     0.251 A 
HETATM   30  O6  GNP A 200      16.287  26.805  -5.312  1.00 11.17    -0.167 OA
HETATM   31  N7  GNP A 200      17.565  29.274  -4.001  1.00  8.86    -0.219 NA
HETATM   32  C8  GNP A 200      18.132  30.050  -3.054  1.00 11.92     0.182 A 
ENDBRANCH   7  22
TORSDOF 8
ENDMDL
