MODEL 1
REMARK VINA RESULT:    -8.111      0.000      0.000
REMARK INTER + INTRA:         -12.296
REMARK INTER:                 -11.905
REMARK INTRA:                  -0.391
REMARK UNBOUND:                -0.391
REMARK  8 active torsions:
REMARK  status: ('A' for Active; 'I' for Inactive)
REMARK    1  A    between atoms: PA_1  and  O5'_5 
REMARK    2  A    between atoms: PA_1  and  O3A_24 
REMARK    3  A    between atoms: PB_2  and  N3B_23 
REMARK    4  A    between atoms: PB_2  and  O3A_24 
REMARK    5  A    between atoms: PG_3  and  N3B_23 
REMARK    6  A    between atoms: C5'_4  and  O5'_5 
REMARK    7  A    between atoms: C5'_4  and  C4'_6 
REMARK    8  A    between atoms: C1'_12  and  N9_32 
ROOT
HETATM    1  C4' GNP A 200       3.385  43.695  19.428  1.00 11.60     0.181 C 
HETATM    2  O4' GNP A 200       2.688  44.664  18.582  1.00 10.96    -0.331 OA
HETATM    3  C3' GNP A 200       4.605  43.233  18.617  1.00 12.08     0.216 C 
HETATM    4  O3' GNP A 200       4.204  42.090  17.822  1.00 14.40    -0.218 OA
HETATM    5  C2' GNP A 200       4.872  44.456  17.685  1.00 12.17     0.234 C 
HETATM    6  O2' GNP A 200       5.459  44.137  16.392  1.00 13.60    -0.216 OA
HETATM    7  C1' GNP A 200       3.439  44.932  17.368  1.00 11.60     0.241 C 
ENDROOT
BRANCH   1   8
HETATM    8  C5' GNP A 200       3.722  44.267  20.745  1.00 10.62     0.187 C 
BRANCH   8   9
HETATM    9  O5' GNP A 200       5.151  44.387  20.929  1.00  9.72    -0.268 OA
BRANCH   9  10
HETATM   10  PA  GNP A 200       5.847  43.780  22.147  1.00 10.32     0.418 P 
HETATM   11  O1A GNP A 200       6.373  42.383  21.805  1.00  9.87    -0.624 OA
HETATM   12  O2A GNP A 200       5.003  43.950  23.393  1.00 11.09    -0.624 OA
BRANCH  10  13
HETATM   13  O3A GNP A 200       7.166  44.817  22.330  1.00  9.21    -0.185 OA
BRANCH  13  14
HETATM   14  PB  GNP A 200       8.444  44.596  23.185  1.00  8.42     0.401 P 
HETATM   15  O1B GNP A 200       8.021  43.549  24.136  1.00  8.14    -0.628 OA
HETATM   16  O2B GNP A 200       8.919  45.829  23.720  1.00  8.71    -0.628 OA
BRANCH  14  17
HETATM   17  N3B GNP A 200       9.596  43.884  22.052  1.00  9.58    -0.091 NA
BRANCH  17  18
HETATM   18  PG  GNP A 200      11.115  43.496  22.441  1.00  9.51     0.404 P 
HETATM   19  O1G GNP A 200      11.551  42.283  21.584  1.00 10.72    -0.621 OA
HETATM   20  O2G GNP A 200      11.221  43.266  23.829  1.00 10.01    -0.621 OA
HETATM   21  O3G GNP A 200      11.905  44.766  22.020  1.00 11.72    -0.621 OA
ENDBRANCH  17  18
ENDBRANCH  14  17
ENDBRANCH  13  14
ENDBRANCH  10  13
ENDBRANCH   9  10
ENDBRANCH   8   9
ENDBRANCH   1   8
BRANCH   7  22
HETATM   22  N9  GNP A 200       3.245  46.386  17.028  1.00  9.54    -0.269 N 
HETATM   23  C4  GNP A 200       3.827  47.036  16.052  1.00  9.54     0.187 A 
HETATM   24  N3  GNP A 200       4.665  46.623  15.124  1.00 10.76    -0.039 NA
HETATM   25  C5  GNP A 200       3.354  48.352  16.278  1.00  8.26     0.162 A 
HETATM   26  C2  GNP A 200       5.093  47.422  14.284  1.00  9.86     0.772 A 
HETATM   27  N1  GNP A 200       4.693  48.853  14.317  1.00 10.22    -0.029 NA
HETATM   28  N2  GNP A 200       5.901  47.258  13.288  1.00 11.49     0.062 N 
HETATM   29  C6  GNP A 200       3.870  49.230  15.291  1.00 10.19     0.251 A 
HETATM   30  O6  GNP A 200       3.530  50.546  15.339  1.00 11.17    -0.167 OA
HETATM   31  N7  GNP A 200       2.561  48.382  17.295  1.00  8.86    -0.219 NA
HETATM   32  C8  GNP A 200       2.425  47.170  17.871  1.00 11.92     0.182 A 
ENDBRANCH   7  22
TORSDOF 8
ENDMDL
MODEL 2
REMARK VINA RESULT:    -7.852      1.627      3.153
REMARK INTER + INTRA:         -11.914
REMARK INTER:                 -11.210
REMARK INTRA:                  -0.704
REMARK UNBOUND:                -0.391
REMARK  8 active torsions:
REMARK  status: ('A' for Active; 'I' for Inactive)
REMARK    1  A    between atoms: PA_1  and  O5'_5 
REMARK    2  A    between atoms: PA_1  and  O3A_24 
REMARK    3  A    between atoms: PB_2  and  N3B_23 
REMARK    4  A    between atoms: PB_2  and  O3A_24 
REMARK    5  A    between atoms: PG_3  and  N3B_23 
REMARK    6  A    between atoms: C5'_4  and  O5'_5 
REMARK    7  A    between atoms: C5'_4  and  C4'_6 
REMARK    8  A    between atoms: C1'_12  and  N9_32 
ROOT
HETATM    1  C4' GNP A 200       4.100  43.793  19.277  1.00 11.60     0.181 C 
HETATM    2  O4' GNP A 200       3.560  45.039  18.732  1.00 10.96    -0.331 OA
HETATM    3  C3' GNP A 200       4.069  42.782  18.120  1.00 12.08     0.216 C 
HETATM    4  O3' GNP A 200       2.784  42.113  18.149  1.00 14.40    -0.218 OA
HETATM    5  C2' GNP A 200       4.155  43.705  16.864  1.00 12.17     0.234 C 
HETATM    6  O2' GNP A 200       3.494  43.198  15.672  1.00 13.60    -0.216 OA
HETATM    7  C1' GNP A 200       3.313  44.920  17.306  1.00 11.60     0.241 C 
ENDROOT
BRANCH   1   8
HETATM    8  C5' GNP A 200       5.438  43.992  19.864  1.00 10.62     0.187 C 
BRANCH   8   9
HETATM    9  O5' GNP A 200       5.364  44.581  21.182  1.00  9.72    -0.268 OA
BRANCH   9  10
HETATM   10  PA  GNP A 200       5.940  43.866  22.404  1.00 10.32     0.418 P 
HETATM   11  O1A GNP A 200       6.519  42.510  21.990  1.00  9.87    -0.624 OA
HETATM   12  O2A GNP A 200       4.970  43.914  23.566  1.00 11.09    -0.624 OA
BRANCH  10  13
HETATM   13  O3A GNP A 200       7.218  44.888  22.819  1.00  9.21    -0.185 OA
BRANCH  13  14
HETATM   14  PB  GNP A 200       8.612  44.495  23.381  1.00  8.42     0.401 P 
HETATM   15  O1B GNP A 200       9.156  45.792  23.833  1.00  8.14    -0.628 OA
HETATM   16  O2B GNP A 200       9.360  43.757  22.420  1.00  8.71    -0.628 OA
BRANCH  14  17
HETATM   17  N3B GNP A 200       8.237  43.525  24.809  1.00  9.58    -0.091 NA
BRANCH  17  18
HETATM   18  PG  GNP A 200       7.853  44.154  26.246  1.00  9.51     0.404 P 
HETATM   19  O1G GNP A 200       6.525  44.937  26.104  1.00 10.72    -0.621 OA
HETATM   20  O2G GNP A 200       8.917  44.942  26.735  1.00 10.01    -0.621 OA
HETATM   21  O3G GNP A 200       7.642  42.888  27.122  1.00 11.72    -0.621 OA
ENDBRANCH  17  18
ENDBRANCH  14  17
ENDBRANCH  13  14
ENDBRANCH  10  13
ENDBRANCH   9  10
ENDBRANCH   8   9
ENDBRANCH   1   8
BRANCH   7  22
HETATM   22  N9  GNP A 200       3.627  46.253  16.680  1.00  9.54    -0.269 N 
HETATM   23  C4  GNP A 200       3.008  47.383  16.917  1.00  9.54     0.187 A 
HETATM   24  N3  GNP A 200       2.026  47.667  17.747  1.00 10.76    -0.039 NA
HETATM   25  C5  GNP A 200       3.650  48.245  15.994  1.00  8.26     0.162 A 
HETATM   26  C2  GNP A 200       1.593  48.822  17.811  1.00  9.86     0.772 A 
HETATM   27  N1  GNP A 200       2.151  49.898  16.950  1.00 10.22    -0.029 NA
HETATM   28  N2  GNP A 200       0.659  49.342  18.541  1.00 11.49     0.062 N 
HETATM   29  C6  GNP A 200       3.121  49.557  16.107  1.00 10.19     0.251 A 
HETATM   30  O6  GNP A 200       3.609  50.534  15.297  1.00 11.17    -0.167 OA
HETATM   31  N7  GNP A 200       4.556  47.610  15.331  1.00  8.86    -0.219 NA
HETATM   32  C8  GNP A 200       4.622  46.308  15.679  1.00 11.92     0.182 A 
ENDBRANCH   7  22
TORSDOF 8
ENDMDL
MODEL 3
REMARK VINA RESULT:    -7.566      6.059      9.684
REMARK INTER + INTRA:         -11.496
REMARK INTER:                 -10.607
REMARK INTRA:                  -0.888
REMARK UNBOUND:                -0.391
REMARK  8 active torsions:
REMARK  status: ('A' for Active; 'I' for Inactive)
REMARK    1  A    between atoms: PA_1  and  O5'_5 
REMARK    2  A    between atoms: PA_1  and  O3A_24 
REMARK    3  A    between atoms: PB_2  and  N3B_23 
REMARK    4  A    between atoms: PB_2  and  O3A_24 
REMARK    5  A    between atoms: PG_3  and  N3B_23 
REMARK    6  A    between atoms: C5'_4  and  O5'_5 
REMARK    7  A    between atoms: C5'_4  and  C4'_6 
REMARK    8  A    between atoms: C1'_12  and  N9_32 
ROOT
HETATM    1  C4' GNP A 200       1.712  49.768  18.610  1.00 11.60     0.181 C 
HETATM    2  O4' GNP A 200       2.744  48.731  18.580  1.00 10.96    -0.331 OA
HETATM    3  C3' GNP A 200       1.528  50.218  17.152  1.00 12.08     0.216 C 
HETATM    4  O3' GNP A 200       2.458  51.301  16.900  1.00 14.40    -0.218 OA
HETATM    5  C2' GNP A 200       1.966  48.951  16.352  1.00 12.17     0.234 C 
HETATM    6  O2' GNP A 200       2.553  49.211  15.046  1.00 13.60    -0.216 OA
HETATM    7  C1' GNP A 200       3.127  48.416  17.215  1.00 11.60     0.241 C 
ENDROOT
BRANCH   1   8
HETATM    8  C5' GNP A 200       0.474  49.283  19.248  1.00 10.62     0.187 C 
BRANCH   8   9
HETATM    9  O5' GNP A 200      -0.319  48.481  18.343  1.00  9.72    -0.268 OA
BRANCH   9  10
HETATM   10  PA  GNP A 200      -1.845  48.484  18.411  1.00 10.32     0.418 P 
HETATM   11  O1A GNP A 200      -2.396  49.732  17.714  1.00  9.87    -0.624 OA
HETATM   12  O2A GNP A 200      -2.326  48.167  19.812  1.00 11.09    -0.624 OA
BRANCH  10  13
HETATM   13  O3A GNP A 200      -2.225  47.135  17.470  1.00  9.21    -0.185 OA
BRANCH  13  14
HETATM   14  PB  GNP A 200      -3.630  46.545  17.167  1.00  8.42     0.401 P 
HETATM   15  O1B GNP A 200      -3.441  45.919  15.844  1.00  8.14    -0.628 OA
HETATM   16  O2B GNP A 200      -4.640  47.543  17.295  1.00  8.71    -0.628 OA
BRANCH  14  17
HETATM   17  N3B GNP A 200      -3.819  45.261  18.365  1.00  9.58    -0.091 NA
BRANCH  17  18
HETATM   18  PG  GNP A 200      -5.204  44.471  18.623  1.00  9.51     0.404 P 
HETATM   19  O1G GNP A 200      -6.164  45.399  19.407  1.00 10.72    -0.621 OA
HETATM   20  O2G GNP A 200      -4.954  43.245  19.275  1.00 10.01    -0.621 OA
HETATM   21  O3G GNP A 200      -5.734  44.242  17.180  1.00 11.72    -0.621 OA
ENDBRANCH  17  18
ENDBRANCH  14  17
ENDBRANCH  13  14
ENDBRANCH  10  13
ENDBRANCH   9  10
ENDBRANCH   8   9
ENDBRANCH   1   8
BRANCH   7  22
HETATM   22  N9  GNP A 200       3.418  46.939  17.157  1.00  9.54    -0.269 N 
HETATM   23  C4  GNP A 200       4.107  46.322  16.229  1.00  9.54     0.187 A 
HETATM   24  N3  GNP A 200       4.735  46.792  15.171  1.00 10.76    -0.039 NA
HETATM   25  C5  GNP A 200       3.964  44.973  16.634  1.00  8.26     0.162 A 
HETATM   26  C2  GNP A 200       5.335  46.015  14.421  1.00  9.86     0.772 A 
HETATM   27  N1  GNP A 200       5.343  44.552  14.681  1.00 10.22    -0.029 NA
HETATM   28  N2  GNP A 200       6.022  46.231  13.346  1.00 11.49     0.062 N 
HETATM   29  C6  GNP A 200       4.670  44.122  15.744  1.00 10.19     0.251 A 
HETATM   30  O6  GNP A 200       4.651  42.780  15.964  1.00 11.17    -0.167 OA
HETATM   31  N7  GNP A 200       3.262  44.893  17.713  1.00  8.86    -0.219 NA
HETATM   32  C8  GNP A 200       2.841  46.102  18.137  1.00 11.92     0.182 A 
ENDBRANCH   7  22
TORSDOF 8
ENDMDL
MODEL 4
REMARK VINA RESULT:    -7.550      1.525      2.615
REMARK INTER + INTRA:         -11.472
REMARK INTER:                 -10.582
REMARK INTRA:                  -0.890
REMARK UNBOUND:                -0.391
REMARK  8 active torsions:
REMARK  status: ('A' for Active; 'I' for Inactive)
REMARK    1  A    between atoms: PA_1  and  O5'_5 
REMARK    2  A    between atoms: PA_1  and  O3A_24 
REMARK    3  A    between atoms: PB_2  and  N3B_23 
REMARK    4  A    between atoms: PB_2  and  O3A_24 
REMARK    5  A    between atoms: PG_3  and  N3B_23 
REMARK    6  A    between atoms: C5'_4  and  O5'_5 
REMARK    7  A    between atoms: C5'_4  and  C4'_6 
REMARK    8  A    between atoms: C1'_12  and  N9_32 
ROOT
HETATM    1  C4' GNP A 200       4.062  43.859  19.328  1.00 11.60     0.181 C 
HETATM    2  O4' GNP A 200       3.525  45.113  18.798  1.00 10.96    -0.331 OA
HETATM    3  C3' GNP A 200       4.009  42.856  18.165  1.00 12.08     0.216 C 
HETATM    4  O3' GNP A 200       2.719  42.197  18.204  1.00 14.40    -0.218 OA
HETATM    5  C2' GNP A 200       4.087  43.788  16.914  1.00 12.17     0.234 C 
HETATM    6  O2' GNP A 200       3.407  43.294  15.727  1.00 13.60    -0.216 OA
HETATM    7  C1' GNP A 200       3.260  45.005  17.374  1.00 11.60     0.241 C 
ENDROOT
BRANCH   1   8
HETATM    8  C5' GNP A 200       5.408  44.044  19.900  1.00 10.62     0.187 C 
BRANCH   8   9
HETATM    9  O5' GNP A 200       5.354  44.605  21.231  1.00  9.72    -0.268 OA
BRANCH   9  10
HETATM   10  PA  GNP A 200       6.068  43.935  22.404  1.00 10.32     0.418 P 
HETATM   11  O1A GNP A 200       6.489  42.514  22.016  1.00  9.87    -0.624 OA
HETATM   12  O2A GNP A 200       5.297  44.134  23.693  1.00 11.09    -0.624 OA
BRANCH  10  13
HETATM   13  O3A GNP A 200       7.457  44.885  22.538  1.00  9.21    -0.185 OA
BRANCH  13  14
HETATM   14  PB  GNP A 200       8.824  44.496  23.164  1.00  8.42     0.401 P 
HETATM   15  O1B GNP A 200       9.525  43.849  22.037  1.00  8.14    -0.628 OA
HETATM   16  O2B GNP A 200       8.642  43.739  24.358  1.00  8.71    -0.628 OA
BRANCH  14  17
HETATM   17  N3B GNP A 200       9.603  46.049  23.483  1.00  9.58    -0.091 NA
BRANCH  17  18
HETATM   18  PG  GNP A 200      11.202  46.275  23.445  1.00  9.51     0.404 P 
HETATM   19  O1G GNP A 200      11.636  46.492  21.975  1.00 10.72    -0.621 OA
HETATM   20  O2G GNP A 200      11.863  45.197  24.070  1.00 10.01    -0.621 OA
HETATM   21  O3G GNP A 200      11.375  47.589  24.258  1.00 11.72    -0.621 OA
ENDBRANCH  17  18
ENDBRANCH  14  17
ENDBRANCH  13  14
ENDBRANCH  10  13
ENDBRANCH   9  10
ENDBRANCH   8   9
ENDBRANCH   1   8
BRANCH   7  22
HETATM   22  N9  GNP A 200       3.576  46.341  16.753  1.00  9.54    -0.269 N 
HETATM   23  C4  GNP A 200       2.924  47.459  16.951  1.00  9.54     0.187 A 
HETATM   24  N3  GNP A 200       1.896  47.728  17.729  1.00 10.76    -0.039 NA
HETATM   25  C5  GNP A 200       3.592  48.328  16.053  1.00  8.26     0.162 A 
HETATM   26  C2  GNP A 200       1.437  48.875  17.762  1.00  9.86     0.772 A 
HETATM   27  N1  GNP A 200       2.014  49.955  16.921  1.00 10.22    -0.029 NA
HETATM   28  N2  GNP A 200       0.458  49.379  18.441  1.00 11.49     0.062 N 
HETATM   29  C6  GNP A 200       3.031  49.629  16.129  1.00 10.19     0.251 A 
HETATM   30  O6  GNP A 200       3.538  50.610  15.336  1.00 11.17    -0.167 OA
HETATM   31  N7  GNP A 200       4.542  47.707  15.441  1.00  8.86    -0.219 NA
HETATM   32  C8  GNP A 200       4.619  46.410  15.802  1.00 11.92     0.182 A 
ENDBRANCH   7  22
TORSDOF 8
ENDMDL
MODEL 5
REMARK VINA RESULT:    -7.422      6.336     10.460
REMARK INTER + INTRA:         -11.283
REMARK INTER:                 -10.321
REMARK INTRA:                  -0.962
REMARK UNBOUND:                -0.391
REMARK  8 active torsions:
REMARK  status: ('A' for Active; 'I' for Inactive)
REMARK    1  A    between atoms: PA_1  and  O5'_5 
REMARK    2  A    between atoms: PA_1  and  O3A_24 
REMARK    3  A    between atoms: PB_2  and  N3B_23 
REMARK    4  A    between atoms: PB_2  and  O3A_24 
REMARK    5  A    between atoms: PG_3  and  N3B_23 
REMARK    6  A    between atoms: C5'_4  and  O5'_5 
REMARK    7  A    between atoms: C5'_4  and  C4'_6 
REMARK    8  A    between atoms: C1'_12  and  N9_32 
ROOT
HETATM    1  C4' GNP A 200      -0.206  48.930  18.656  1.00 11.60     0.181 C 
HETATM    2  O4' GNP A 200       0.925  48.029  18.435  1.00 10.96    -0.331 OA
HETATM    3  C3' GNP A 200       0.389  50.346  18.702  1.00 12.08     0.216 C 
HETATM    4  O3' GNP A 200       0.749  50.632  20.077  1.00 14.40    -0.218 OA
HETATM    5  C2' GNP A 200       1.681  50.196  17.840  1.00 12.17     0.234 C 
HETATM    6  O2' GNP A 200       2.783  51.071  18.210  1.00 13.60    -0.216 OA
HETATM    7  C1' GNP A 200       2.152  48.777  18.218  1.00 11.60     0.241 C 
ENDROOT
BRANCH   1   8
HETATM    8  C5' GNP A 200      -1.251  48.752  17.631  1.00 10.62     0.187 C 
BRANCH   8   9
HETATM    9  O5' GNP A 200      -2.537  48.453  18.221  1.00  9.72    -0.268 OA
BRANCH   9  10
HETATM   10  PA  GNP A 200      -3.144  47.054  18.132  1.00 10.32     0.418 P 
HETATM   11  O1A GNP A 200      -3.928  46.743  19.410  1.00  9.87    -0.624 OA
HETATM   12  O2A GNP A 200      -2.118  46.049  17.650  1.00 11.09    -0.624 OA
BRANCH  10  13
HETATM   13  O3A GNP A 200      -4.243  47.245  16.864  1.00  9.21    -0.185 OA
BRANCH  13  14
HETATM   14  PB  GNP A 200      -4.976  46.138  16.060  1.00  8.42     0.401 P 
HETATM   15  O1B GNP A 200      -6.089  46.877  15.430  1.00  8.14    -0.628 OA
HETATM   16  O2B GNP A 200      -5.301  45.031  16.896  1.00  8.71    -0.628 OA
BRANCH  14  17
HETATM   17  N3B GNP A 200      -3.823  45.693  14.798  1.00  9.58    -0.091 NA
BRANCH  17  18
HETATM   18  PG  GNP A 200      -4.204  44.799  13.509  1.00  9.51     0.404 P 
HETATM   19  O1G GNP A 200      -5.109  43.630  13.969  1.00 10.72    -0.621 OA
HETATM   20  O2G GNP A 200      -3.034  44.372  12.846  1.00 10.01    -0.621 OA
HETATM   21  O3G GNP A 200      -5.013  45.796  12.635  1.00 11.72    -0.621 OA
ENDBRANCH  17  18
ENDBRANCH  14  17
ENDBRANCH  13  14
ENDBRANCH  10  13
ENDBRANCH   9  10
ENDBRANCH   8   9
ENDBRANCH   1   8
BRANCH   7  22
HETATM   22  N9  GNP A 200       2.970  48.018  17.206  1.00  9.54    -0.269 N 
HETATM   23  C4  GNP A 200       3.625  46.904  17.420  1.00  9.54     0.187 A 
HETATM   24  N3  GNP A 200       3.717  46.155  18.499  1.00 10.76    -0.039 NA
HETATM   25  C5  GNP A 200       4.270  46.722  16.172  1.00  8.26     0.162 A 
HETATM   26  C2  GNP A 200       4.399  45.126  18.474  1.00  9.86     0.772 A 
HETATM   27  N1  GNP A 200       5.137  44.726  17.247  1.00 10.22    -0.029 NA
HETATM   28  N2  GNP A 200       4.632  44.237  19.385  1.00 11.49     0.062 N 
HETATM   29  C6  GNP A 200       5.037  45.529  16.192  1.00 10.19     0.251 A 
HETATM   30  O6  GNP A 200       5.739  45.180  15.080  1.00 11.17    -0.167 OA
HETATM   31  N7  GNP A 200       3.957  47.671  15.355  1.00  8.86    -0.219 NA
HETATM   32  C8  GNP A 200       3.132  48.576  15.918  1.00 11.92     0.182 A 
ENDBRANCH   7  22
TORSDOF 8
ENDMDL
MODEL 6
REMARK VINA RESULT:    -7.272      6.296     11.598
REMARK INTER + INTRA:         -11.063
REMARK INTER:                 -10.259
REMARK INTRA:                  -0.804
REMARK UNBOUND:                -0.391
REMARK  8 active torsions:
REMARK  status: ('A' for Active; 'I' for Inactive)
REMARK    1  A    between atoms: PA_1  and  O5'_5 
REMARK    2  A    between atoms: PA_1  and  O3A_24 
REMARK    3  A    between atoms: PB_2  and  N3B_23 
REMARK    4  A    between atoms: PB_2  and  O3A_24 
REMARK    5  A    between atoms: PG_3  and  N3B_23 
REMARK    6  A    between atoms: C5'_4  and  O5'_5 
REMARK    7  A    between atoms: C5'_4  and  C4'_6 
REMARK    8  A    between atoms: C1'_12  and  N9_32 
ROOT
HETATM    1  C4' GNP A 200       0.987  50.261  14.866  1.00 11.60     0.181 C 
HETATM    2  O4' GNP A 200       1.143  49.172  15.830  1.00 10.96    -0.331 OA
HETATM    3  C3' GNP A 200       1.721  51.467  15.472  1.00 12.08     0.216 C 
HETATM    4  O3' GNP A 200       0.775  52.198  16.292  1.00 14.40    -0.218 OA
HETATM    5  C2' GNP A 200       2.790  50.785  16.383  1.00 12.17     0.234 C 
HETATM    6  O2' GNP A 200       3.175  51.541  17.565  1.00 13.60    -0.216 OA
HETATM    7  C1' GNP A 200       2.015  49.565  16.923  1.00 11.60     0.241 C 
ENDROOT
BRANCH   1   8
HETATM    8  C5' GNP A 200       1.471  49.876  13.527  1.00 10.62     0.187 C 
BRANCH   8   9
HETATM    9  O5' GNP A 200       1.773  51.031  12.712  1.00  9.72    -0.268 OA
BRANCH   9  10
HETATM   10  PA  GNP A 200       0.991  51.326  11.433  1.00 10.32     0.418 P 
HETATM   11  O1A GNP A 200       1.798  52.267  10.532  1.00  9.87    -0.624 OA
HETATM   12  O2A GNP A 200      -0.447  51.683  11.748  1.00 11.09    -0.624 OA
BRANCH  10  13
HETATM   13  O3A GNP A 200       0.947  49.801  10.708  1.00  9.21    -0.185 OA
BRANCH  13  14
HETATM   14  PB  GNP A 200       0.722  49.461   9.210  1.00  8.42     0.401 P 
HETATM   15  O1B GNP A 200      -0.141  50.568   8.752  1.00  8.14    -0.628 OA
HETATM   16  O2B GNP A 200       0.237  48.130   9.056  1.00  8.71    -0.628 OA
BRANCH  14  17
HETATM   17  N3B GNP A 200       2.318  49.667   8.483  1.00  9.58    -0.091 NA
BRANCH  17  18
HETATM   18  PG  GNP A 200       2.558  50.245   6.994  1.00  9.51     0.404 P 
HETATM   19  O1G GNP A 200       1.227  50.154   6.208  1.00 10.72    -0.621 OA
HETATM   20  O2G GNP A 200       3.623  49.562   6.370  1.00 10.01    -0.621 OA
HETATM   21  O3G GNP A 200       2.925  51.730   7.264  1.00 11.72    -0.621 OA
ENDBRANCH  17  18
ENDBRANCH  14  17
ENDBRANCH  13  14
ENDBRANCH  10  13
ENDBRANCH   9  10
ENDBRANCH   8   9
ENDBRANCH   1   8
BRANCH   7  22
HETATM   22  N9  GNP A 200       2.812  48.351  17.323  1.00  9.54    -0.269 N 
HETATM   23  C4  GNP A 200       3.662  47.700  16.568  1.00  9.54     0.187 A 
HETATM   24  N3  GNP A 200       4.066  47.929  15.336  1.00 10.76    -0.039 NA
HETATM   25  C5  GNP A 200       4.015  46.624  17.418  1.00  8.26     0.162 A 
HETATM   26  C2  GNP A 200       4.892  47.175  14.812  1.00  9.86     0.772 A 
HETATM   27  N1  GNP A 200       5.424  45.996  15.545  1.00 10.22    -0.029 NA
HETATM   28  N2  GNP A 200       5.441  47.196  13.641  1.00 11.49     0.062 N 
HETATM   29  C6  GNP A 200       4.964  45.789  16.775  1.00 10.19     0.251 A 
HETATM   30  O6  GNP A 200       5.427  44.693  17.432  1.00 11.17    -0.167 OA
HETATM   31  N7  GNP A 200       3.403  46.718  18.550  1.00  8.86    -0.219 NA
HETATM   32  C8  GNP A 200       2.585  47.789  18.599  1.00 11.92     0.182 A 
ENDBRANCH   7  22
TORSDOF 8
ENDMDL
MODEL 7
REMARK VINA RESULT:    -7.169      6.089     10.339
REMARK INTER + INTRA:         -10.912
REMARK INTER:                 -10.523
REMARK INTRA:                  -0.389
REMARK UNBOUND:                -0.391
REMARK  8 active torsions:
REMARK  status: ('A' for Active; 'I' for Inactive)
REMARK    1  A    between atoms: PA_1  and  O5'_5 
REMARK    2  A    between atoms: PA_1  and  O3A_24 
REMARK    3  A    between atoms: PB_2  and  N3B_23 
REMARK    4  A    between atoms: PB_2  and  O3A_24 
REMARK    5  A    between atoms: PG_3  and  N3B_23 
REMARK    6  A    between atoms: C5'_4  and  O5'_5 
REMARK    7  A    between atoms: C5'_4  and  C4'_6 
REMARK    8  A    between atoms: C1'_12  and  N9_32 
ROOT
HETATM    1  C4' GNP A 200       1.782  49.120  18.057  1.00 11.60     0.181 C 
HETATM    2  O4' GNP A 200       2.950  48.259  17.865  1.00 10.96    -0.331 OA
HETATM    3  C3' GNP A 200       1.722  50.027  16.819  1.00 12.08     0.216 C 
HETATM    4  O3' GNP A 200       2.510  51.212  17.097  1.00 14.40    -0.218 OA
HETATM    5  C2' GNP A 200       2.438  49.163  15.734  1.00 12.17     0.234 C 
HETATM    6  O2' GNP A 200       3.142  49.912  14.705  1.00 13.60    -0.216 OA
HETATM    7  C1' GNP A 200       3.545  48.473  16.557  1.00 11.60     0.241 C 
ENDROOT
BRANCH   1   8
HETATM    8  C5' GNP A 200       0.557  48.331  18.283  1.00 10.62     0.187 C 
BRANCH   8   9
HETATM    9  O5' GNP A 200      -0.522  48.755  17.417  1.00  9.72    -0.268 OA
BRANCH   9  10
HETATM   10  PA  GNP A 200      -1.981  48.637  17.854  1.00 10.32     0.418 P 
HETATM   11  O1A GNP A 200      -2.748  49.903  17.460  1.00  9.87    -0.624 OA
HETATM   12  O2A GNP A 200      -2.081  48.147  19.284  1.00 11.09    -0.624 OA
BRANCH  10  13
HETATM   13  O3A GNP A 200      -2.519  47.364  16.885  1.00  9.21    -0.185 OA
BRANCH  13  14
HETATM   14  PB  GNP A 200      -3.774  47.322  15.971  1.00  8.42     0.401 P 
HETATM   15  O1B GNP A 200      -3.390  48.205  14.852  1.00  8.14    -0.628 OA
HETATM   16  O2B GNP A 200      -4.950  47.650  16.705  1.00  8.71    -0.628 OA
BRANCH  14  17
HETATM   17  N3B GNP A 200      -3.812  45.659  15.376  1.00  9.58    -0.091 NA
BRANCH  17  18
HETATM   18  PG  GNP A 200      -4.593  45.202  14.038  1.00  9.51     0.404 P 
HETATM   19  O1G GNP A 200      -3.688  45.490  12.816  1.00 10.72    -0.621 OA
HETATM   20  O2G GNP A 200      -5.851  45.838  13.965  1.00 10.01    -0.621 OA
HETATM   21  O3G GNP A 200      -4.749  43.670  14.246  1.00 11.72    -0.621 OA
ENDBRANCH  17  18
ENDBRANCH  14  17
ENDBRANCH  13  14
ENDBRANCH  10  13
ENDBRANCH   9  10
ENDBRANCH   8   9
ENDBRANCH   1   8
BRANCH   7  22
HETATM   22  N9  GNP A 200       4.053  47.141  16.069  1.00  9.54    -0.269 N 
HETATM   23  C4  GNP A 200       3.930  45.993  16.688  1.00  9.54     0.187 A 
HETATM   24  N3  GNP A 200       3.332  45.687  17.821  1.00 10.76    -0.039 NA
HETATM   25  C5  GNP A 200       4.667  45.140  15.831  1.00  8.26     0.162 A 
HETATM   26  C2  GNP A 200       3.336  44.518  18.219  1.00  9.86     0.772 A 
HETATM   27  N1  GNP A 200       4.026  43.450  17.450  1.00 10.22    -0.029 NA
HETATM   28  N2  GNP A 200       2.819  43.977  19.275  1.00 11.49     0.062 N 
HETATM   29  C6  GNP A 200       4.642  43.812  16.329  1.00 10.19     0.251 A 
HETATM   30  O6  GNP A 200       5.300  42.840  15.642  1.00 11.17    -0.167 OA
HETATM   31  N7  GNP A 200       5.129  45.798  14.821  1.00  8.86    -0.219 NA
HETATM   32  C8  GNP A 200       4.806  47.106  14.875  1.00 11.92     0.182 A 
ENDBRANCH   7  22
TORSDOF 8
ENDMDL
MODEL 8
REMARK VINA RESULT:    -7.136      6.208      9.249
REMARK INTER + INTRA:         -10.864
REMARK INTER:                  -9.808
REMARK INTRA:                  -1.056
REMARK UNBOUND:                -0.391
REMARK  8 active torsions:
REMARK  status: ('A' for Active; 'I' for Inactive)
REMARK    1  A    between atoms: PA_1  and  O5'_5 
REMARK    2  A    between atoms: PA_1  and  O3A_24 
REMARK    3  A    between atoms: PB_2  and  N3B_23 
REMARK    4  A    between atoms: PB_2  and  O3A_24 
REMARK    5  A    between atoms: PG_3  and  N3B_23 
REMARK    6  A    between atoms: C5'_4  and  O5'_5 
REMARK    7  A    between atoms: C5'_4  and  C4'_6 
REMARK    8  A    between atoms: C1'_12  and  N9_32 
ROOT
HETATM    1  C4' GNP A 200       1.853  50.372  17.470  1.00 11.60     0.181 C 
HETATM    2  O4' GNP A 200       2.138  49.528  16.310  1.00 10.96    -0.331 OA
HETATM    3  C3' GNP A 200       2.105  49.489  18.702  1.00 12.08     0.216 C 
HETATM    4  O3' GNP A 200       0.865  48.810  19.024  1.00 14.40    -0.218 OA
HETATM    5  C2' GNP A 200       3.147  48.457  18.168  1.00 12.17     0.234 C 
HETATM    6  O2' GNP A 200       3.096  47.142  18.789  1.00 13.60    -0.216 OA
HETATM    7  C1' GNP A 200       2.663  48.237  16.721  1.00 11.60     0.241 C 
ENDROOT
BRANCH   1   8
HETATM    8  C5' GNP A 200       2.649  51.612  17.448  1.00 10.62     0.187 C 
BRANCH   8   9
HETATM    9  O5' GNP A 200       2.769  52.150  16.111  1.00  9.72    -0.268 OA
BRANCH   9  10
HETATM   10  PA  GNP A 200       2.896  53.654  15.870  1.00 10.32     0.418 P 
HETATM   11  O1A GNP A 200       2.568  54.418  17.156  1.00  9.87    -0.624 OA
HETATM   12  O2A GNP A 200       2.195  54.058  14.589  1.00 11.09    -0.624 OA
BRANCH  10  13
HETATM   13  O3A GNP A 200       4.550  53.806  15.565  1.00  9.21    -0.185 OA
BRANCH  13  14
HETATM   14  PB  GNP A 200       5.597  54.627  16.365  1.00  8.42     0.401 P 
HETATM   15  O1B GNP A 200       5.563  53.988  17.696  1.00  8.14    -0.628 OA
HETATM   16  O2B GNP A 200       5.318  56.023  16.289  1.00  8.71    -0.628 OA
BRANCH  14  17
HETATM   17  N3B GNP A 200       7.134  54.221  15.596  1.00  9.58    -0.091 NA
BRANCH  17  18
HETATM   18  PG  GNP A 200       7.698  54.957  14.273  1.00  9.51     0.404 P 
HETATM   19  O1G GNP A 200       8.107  56.403  14.649  1.00 10.72    -0.621 OA
HETATM   20  O2G GNP A 200       6.743  54.898  13.236  1.00 10.01    -0.621 OA
HETATM   21  O3G GNP A 200       8.955  54.113  13.928  1.00 11.72    -0.621 OA
ENDBRANCH  17  18
ENDBRANCH  14  17
ENDBRANCH  13  14
ENDBRANCH  10  13
ENDBRANCH   9  10
ENDBRANCH   8   9
ENDBRANCH   1   8
BRANCH   7  22
HETATM   22  N9  GNP A 200       3.686  47.819  15.697  1.00  9.54    -0.269 N 
HETATM   23  C4  GNP A 200       4.175  46.614  15.541  1.00  9.54     0.187 A 
HETATM   24  N3  GNP A 200       3.902  45.488  16.167  1.00 10.76    -0.039 NA
HETATM   25  C5  GNP A 200       5.140  46.839  14.528  1.00  8.26     0.162 A 
HETATM   26  C2  GNP A 200       4.492  44.451  15.847  1.00  9.86     0.772 A 
HETATM   27  N1  GNP A 200       5.524  44.456  14.777  1.00 10.22    -0.029 NA
HETATM   28  N2  GNP A 200       4.392  43.242  16.297  1.00 11.49     0.062 N 
HETATM   29  C6  GNP A 200       5.787  45.622  14.195  1.00 10.19     0.251 A 
HETATM   30  O6  GNP A 200       6.754  45.632  13.239  1.00 11.17    -0.167 OA
HETATM   31  N7  GNP A 200       5.140  48.078  14.168  1.00  8.86    -0.219 NA
HETATM   32  C8  GNP A 200       4.249  48.812  14.866  1.00 11.92     0.182 A 
ENDBRANCH   7  22
TORSDOF 8
ENDMDL
MODEL 9
REMARK VINA RESULT:    -7.087      6.454     10.845
REMARK INTER + INTRA:         -10.792
REMARK INTER:                  -9.598
REMARK INTRA:                  -1.194
REMARK UNBOUND:                -0.391
REMARK  8 active torsions:
REMARK  status: ('A' for Active; 'I' for Inactive)
REMARK    1  A    between atoms: PA_1  and  O5'_5 
REMARK    2  A    between atoms: PA_1  and  O3A_24 
REMARK    3  A    between atoms: PB_2  and  N3B_23 
REMARK    4  A    between atoms: PB_2  and  O3A_24 
REMARK    5  A    between atoms: PG_3  and  N3B_23 
REMARK    6  A    between atoms: C5'_4  and  O5'_5 
REMARK    7  A    between atoms: C5'_4  and  C4'_6 
REMARK    8  A    between atoms: C1'_12  and  N9_32 
ROOT
HETATM    1  C4' GNP A 200      -0.120  50.306  18.112  1.00 11.60     0.181 C 
HETATM    2  O4' GNP A 200       0.433  49.006  17.731  1.00 10.96    -0.331 OA
HETATM    3  C3' GNP A 200       0.782  50.830  19.240  1.00 12.08     0.216 C 
HETATM    4  O3' GNP A 200       0.244  50.351  20.499  1.00 14.40    -0.218 OA
HETATM    5  C2' GNP A 200       2.140  50.120  18.943  1.00 12.17     0.234 C 
HETATM    6  O2' GNP A 200       2.965  49.840  20.108  1.00 13.60    -0.216 OA
HETATM    7  C1' GNP A 200       1.671  48.738  18.443  1.00 11.60     0.241 C 
ENDROOT
BRANCH   1   8
HETATM    8  C5' GNP A 200      -0.221  51.213  16.955  1.00 10.62     0.187 C 
BRANCH   8   9
HETATM    9  O5' GNP A 200      -0.053  50.509  15.703  1.00  9.72    -0.268 OA
BRANCH   9  10
HETATM   10  PA  GNP A 200      -0.791  50.949  14.440  1.00 10.32     0.418 P 
HETATM   11  O1A GNP A 200      -1.171  52.429  14.546  1.00  9.87    -0.624 OA
HETATM   12  O2A GNP A 200      -1.868  49.951  14.067  1.00 11.09    -0.624 OA
BRANCH  10  13
HETATM   13  O3A GNP A 200       0.418  50.790  13.272  1.00  9.21    -0.185 OA
BRANCH  13  14
HETATM   14  PB  GNP A 200       0.350  51.171  11.768  1.00  8.42     0.401 P 
HETATM   15  O1B GNP A 200       1.498  52.087  11.614  1.00  8.14    -0.628 OA
HETATM   16  O2B GNP A 200      -0.943  51.660  11.424  1.00  8.71    -0.628 OA
BRANCH  14  17
HETATM   17  N3B GNP A 200       0.728  49.663  10.930  1.00  9.58    -0.091 NA
BRANCH  17  18
HETATM   18  PG  GNP A 200       1.057  49.573   9.351  1.00  9.51     0.404 P 
HETATM   19  O1G GNP A 200       2.585  49.391   9.175  1.00 10.72    -0.621 OA
HETATM   20  O2G GNP A 200       0.547  50.704   8.679  1.00 10.01    -0.621 OA
HETATM   21  O3G GNP A 200       0.308  48.280   8.925  1.00 11.72    -0.621 OA
ENDBRANCH  17  18
ENDBRANCH  14  17
ENDBRANCH  13  14
ENDBRANCH  10  13
ENDBRANCH   9  10
ENDBRANCH   8   9
ENDBRANCH   1   8
BRANCH   7  22
HETATM   22  N9  GNP A 200       2.580  47.990  17.502  1.00  9.54    -0.269 N 
HETATM   23  C4  GNP A 200       3.245  46.896  17.776  1.00  9.54     0.187 A 
HETATM   24  N3  GNP A 200       3.277  46.161  18.869  1.00 10.76    -0.039 NA
HETATM   25  C5  GNP A 200       3.984  46.718  16.581  1.00  8.26     0.162 A 
HETATM   26  C2  GNP A 200       3.984  45.149  18.906  1.00  9.86     0.772 A 
HETATM   27  N1  GNP A 200       4.819  44.756  17.741  1.00 10.22    -0.029 NA
HETATM   28  N2  GNP A 200       4.172  44.276  19.842  1.00 11.49     0.062 N 
HETATM   29  C6  GNP A 200       4.777  45.545  16.672  1.00 10.19     0.251 A 
HETATM   30  O6  GNP A 200       5.566  45.203  15.618  1.00 11.17    -0.167 OA
HETATM   31  N7  GNP A 200       3.708  47.649  15.732  1.00  8.86    -0.219 NA
HETATM   32  C8  GNP A 200       2.822  48.539  16.223  1.00 11.92     0.182 A 
ENDBRANCH   7  22
TORSDOF 8
ENDMDL
