MODEL 1
REMARK VINA RESULT:    -8.441      0.000      0.000
REMARK INTER + INTRA:         -13.387
REMARK INTER:                 -12.389
REMARK INTRA:                  -0.998
REMARK UNBOUND:                -0.998
REMARK  8 active torsions:
REMARK  status: ('A' for Active; 'I' for Inactive)
REMARK    1  A    between atoms: PA_1  and  O5'_5 
REMARK    2  A    between atoms: PA_1  and  O3A_24 
REMARK    3  A    between atoms: PB_2  and  N3B_23 
REMARK    4  A    between atoms: PB_2  and  O3A_24 
REMARK    5  A    between atoms: PG_3  and  N3B_23 
REMARK    6  A    between atoms: C5'_4  and  O5'_5 
REMARK    7  A    between atoms: C5'_4  and  C4'_6 
REMARK    8  A    between atoms: C1'_12  and  N9_32 
ROOT
HETATM    1  C4' GNP A 200       3.519  49.364  15.422  1.00 11.60     0.181 C 
HETATM    2  O4' GNP A 200       2.858  49.834  14.205  1.00 10.96    -0.331 OA
HETATM    3  C3' GNP A 200       2.631  49.827  16.587  1.00 12.08     0.216 C 
HETATM    4  O3' GNP A 200       3.072  51.149  16.985  1.00 14.40    -0.218 OA
HETATM    5  C2' GNP A 200       1.223  49.921  15.919  1.00 12.17     0.234 C 
HETATM    6  O2' GNP A 200       0.332  50.923  16.483  1.00 13.60    -0.216 OA
HETATM    7  C1' GNP A 200       1.574  50.441  14.511  1.00 11.60     0.241 C 
ENDROOT
BRANCH   1   8
HETATM    8  C5' GNP A 200       3.751  47.908  15.387  1.00 10.62     0.187 C 
BRANCH   8   9
HETATM    9  O5' GNP A 200       4.767  47.549  14.422  1.00  9.72    -0.268 OA
BRANCH   9  10
HETATM   10  PA  GNP A 200       5.467  46.192  14.476  1.00 10.32     0.418 P 
HETATM   11  O1A GNP A 200       6.730  46.290  15.336  1.00  9.87    -0.624 OA
HETATM   12  O2A GNP A 200       5.579  45.586  13.092  1.00 11.09    -0.624 OA
BRANCH  10  13
HETATM   13  O3A GNP A 200       4.328  45.260  15.303  1.00  9.21    -0.185 OA
BRANCH  13  14
HETATM   14  PB  GNP A 200       4.150  43.718  15.271  1.00  8.42     0.401 P 
HETATM   15  O1B GNP A 200       5.501  43.228  15.611  1.00  8.14    -0.628 OA
HETATM   16  O2B GNP A 200       3.580  43.295  14.035  1.00  8.71    -0.628 OA
BRANCH  14  17
HETATM   17  N3B GNP A 200       3.081  43.384  16.637  1.00  9.58    -0.091 NA
BRANCH  17  18
HETATM   18  PG  GNP A 200       3.589  43.263  18.165  1.00  9.51     0.404 P 
HETATM   19  O1G GNP A 200       4.470  44.494  18.492  1.00 10.72    -0.621 OA
HETATM   20  O2G GNP A 200       4.251  42.033  18.365  1.00 10.01    -0.621 OA
HETATM   21  O3G GNP A 200       2.260  43.323  18.967  1.00 11.72    -0.621 OA
ENDBRANCH  17  18
ENDBRANCH  14  17
ENDBRANCH  13  14
ENDBRANCH  10  13
ENDBRANCH   9  10
ENDBRANCH   8   9
ENDBRANCH   1   8
BRANCH   7  22
HETATM   22  N9  GNP A 200       0.634  50.101  13.384  1.00  9.54    -0.269 N 
HETATM   23  C4  GNP A 200       0.708  50.546  12.155  1.00  9.54     0.187 A 
HETATM   24  N3  GNP A 200       1.590  51.336  11.578  1.00 10.76    -0.039 NA
HETATM   25  C5  GNP A 200      -0.465  49.986  11.590  1.00  8.26     0.162 A 
HETATM   26  C2  GNP A 200       1.464  51.626  10.384  1.00  9.86     0.772 A 
HETATM   27  N1  GNP A 200       0.317  51.114   9.589  1.00 10.22    -0.029 NA
HETATM   28  N2  GNP A 200       2.191  52.360   9.606  1.00 11.49     0.062 N 
HETATM   29  C6  GNP A 200      -0.564  50.346  10.222  1.00 10.19     0.251 A 
HETATM   30  O6  GNP A 200      -1.630  49.904   9.502  1.00 11.17    -0.167 OA
HETATM   31  N7  GNP A 200      -1.099  49.280  12.465  1.00  8.86    -0.219 NA
HETATM   32  C8  GNP A 200      -0.489  49.292  13.668  1.00 11.92     0.182 A 
ENDBRANCH   7  22
TORSDOF 8
ENDMDL
MODEL 2
REMARK VINA RESULT:    -7.621      1.250      2.370
REMARK INTER + INTRA:         -12.183
REMARK INTER:                 -12.043
REMARK INTRA:                  -0.140
REMARK UNBOUND:                -0.998
REMARK  8 active torsions:
REMARK  status: ('A' for Active; 'I' for Inactive)
REMARK    1  A    between atoms: PA_1  and  O5'_5 
REMARK    2  A    between atoms: PA_1  and  O3A_24 
REMARK    3  A    between atoms: PB_2  and  N3B_23 
REMARK    4  A    between atoms: PB_2  and  O3A_24 
REMARK    5  A    between atoms: PG_3  and  N3B_23 
REMARK    6  A    between atoms: C5'_4  and  O5'_5 
REMARK    7  A    between atoms: C5'_4  and  C4'_6 
REMARK    8  A    between atoms: C1'_12  and  N9_32 
ROOT
HETATM    1  C4' GNP A 200       3.586  49.181  15.746  1.00 11.60     0.181 C 
HETATM    2  O4' GNP A 200       3.056  49.793  14.527  1.00 10.96    -0.331 OA
HETATM    3  C3' GNP A 200       2.565  49.495  16.851  1.00 12.08     0.216 C 
HETATM    4  O3' GNP A 200       2.936  50.760  17.452  1.00 14.40    -0.218 OA
HETATM    5  C2' GNP A 200       1.239  49.663  16.045  1.00 12.17     0.234 C 
HETATM    6  O2' GNP A 200       0.273  50.586  16.621  1.00 13.60    -0.216 OA
HETATM    7  C1' GNP A 200       1.736  50.353  14.758  1.00 11.60     0.241 C 
ENDROOT
BRANCH   1   8
HETATM    8  C5' GNP A 200       3.846  47.741  15.561  1.00 10.62     0.187 C 
BRANCH   8   9
HETATM    9  O5' GNP A 200       4.726  47.493  14.441  1.00  9.72    -0.268 OA
BRANCH   9  10
HETATM   10  PA  GNP A 200       5.546  46.207  14.346  1.00 10.32     0.418 P 
HETATM   11  O1A GNP A 200       6.830  46.346  15.170  1.00  9.87    -0.624 OA
HETATM   12  O2A GNP A 200       5.655  45.739  12.910  1.00 11.09    -0.624 OA
BRANCH  10  13
HETATM   13  O3A GNP A 200       4.530  45.104  15.121  1.00  9.21    -0.185 OA
BRANCH  13  14
HETATM   14  PB  GNP A 200       4.549  43.554  15.021  1.00  8.42     0.401 P 
HETATM   15  O1B GNP A 200       5.949  43.270  14.648  1.00  8.14    -0.628 OA
HETATM   16  O2B GNP A 200       3.520  43.087  14.152  1.00  8.71    -0.628 OA
BRANCH  14  17
HETATM   17  N3B GNP A 200       4.299  43.017  16.685  1.00  9.58    -0.091 NA
BRANCH  17  18
HETATM   18  PG  GNP A 200       4.074  44.022  17.928  1.00  9.51     0.404 P 
HETATM   19  O1G GNP A 200       2.669  44.662  17.799  1.00 10.72    -0.621 OA
HETATM   20  O2G GNP A 200       5.117  44.971  17.985  1.00 10.01    -0.621 OA
HETATM   21  O3G GNP A 200       4.119  43.063  19.150  1.00 11.72    -0.621 OA
ENDBRANCH  17  18
ENDBRANCH  14  17
ENDBRANCH  13  14
ENDBRANCH  10  13
ENDBRANCH   9  10
ENDBRANCH   8   9
ENDBRANCH   1   8
BRANCH   7  22
HETATM   22  N9  GNP A 200       0.933  50.149  13.500  1.00  9.54    -0.269 N 
HETATM   23  C4  GNP A 200      -0.370  50.027  13.425  1.00  9.54     0.187 A 
HETATM   24  N3  GNP A 200      -1.293  50.086  14.362  1.00 10.76    -0.039 NA
HETATM   25  C5  GNP A 200      -0.541  49.761  12.045  1.00  8.26     0.162 A 
HETATM   26  C2  GNP A 200      -2.482  49.947  14.059  1.00  9.86     0.772 A 
HETATM   27  N1  GNP A 200      -2.889  49.691  12.653  1.00 10.22    -0.029 NA
HETATM   28  N2  GNP A 200      -3.554  49.973  14.784  1.00 11.49     0.062 N 
HETATM   29  C6  GNP A 200      -1.919  49.610  11.747  1.00 10.19     0.251 A 
HETATM   30  O6  GNP A 200      -2.290  49.345  10.465  1.00 11.17    -0.167 OA
HETATM   31  N7  GNP A 200       0.597  49.761  11.436  1.00  8.86    -0.219 NA
HETATM   32  C8  GNP A 200       1.625  49.987  12.279  1.00 11.92     0.182 A 
ENDBRANCH   7  22
TORSDOF 8
ENDMDL
MODEL 3
REMARK VINA RESULT:    -7.128      3.828      8.234
REMARK INTER + INTRA:         -11.459
REMARK INTER:                 -10.422
REMARK INTRA:                  -1.037
REMARK UNBOUND:                -0.998
REMARK  8 active torsions:
REMARK  status: ('A' for Active; 'I' for Inactive)
REMARK    1  A    between atoms: PA_1  and  O5'_5 
REMARK    2  A    between atoms: PA_1  and  O3A_24 
REMARK    3  A    between atoms: PB_2  and  N3B_23 
REMARK    4  A    between atoms: PB_2  and  O3A_24 
REMARK    5  A    between atoms: PG_3  and  N3B_23 
REMARK    6  A    between atoms: C5'_4  and  O5'_5 
REMARK    7  A    between atoms: C5'_4  and  C4'_6 
REMARK    8  A    between atoms: C1'_12  and  N9_32 
ROOT
HETATM    1  C4' GNP A 200       1.784  49.743  16.069  1.00 11.60     0.181 C 
HETATM    2  O4' GNP A 200       1.673  48.293  16.228  1.00 10.96    -0.331 OA
HETATM    3  C3' GNP A 200       2.259  50.280  17.428  1.00 12.08     0.216 C 
HETATM    4  O3' GNP A 200       1.085  50.564  18.229  1.00 14.40    -0.218 OA
HETATM    5  C2' GNP A 200       3.020  49.055  18.025  1.00 12.17     0.234 C 
HETATM    6  O2' GNP A 200       3.002  48.957  19.476  1.00 13.60    -0.216 OA
HETATM    7  C1' GNP A 200       2.158  47.875  17.533  1.00 11.60     0.241 C 
ENDROOT
BRANCH   1   8
HETATM    8  C5' GNP A 200       2.665  50.100  14.942  1.00 10.62     0.187 C 
BRANCH   8   9
HETATM    9  O5' GNP A 200       2.203  49.530  13.696  1.00  9.72    -0.268 OA
BRANCH   9  10
HETATM   10  PA  GNP A 200       1.207  50.271  12.805  1.00 10.32     0.418 P 
HETATM   11  O1A GNP A 200       1.226  51.767  13.135  1.00  9.87    -0.624 OA
HETATM   12  O2A GNP A 200      -0.127  49.554  12.771  1.00 11.09    -0.624 OA
BRANCH  10  13
HETATM   13  O3A GNP A 200       1.895  50.052  11.279  1.00  9.21    -0.185 OA
BRANCH  13  14
HETATM   14  PB  GNP A 200       1.171  49.961   9.909  1.00  8.42     0.401 P 
HETATM   15  O1B GNP A 200       0.352  51.190   9.893  1.00  8.14    -0.628 OA
HETATM   16  O2B GNP A 200       0.500  48.712   9.768  1.00  8.71    -0.628 OA
BRANCH  14  17
HETATM   17  N3B GNP A 200       2.471  50.147   8.727  1.00  9.58    -0.091 NA
BRANCH  17  18
HETATM   18  PG  GNP A 200       2.230  50.572   7.188  1.00  9.51     0.404 P 
HETATM   19  O1G GNP A 200       2.426  52.102   7.061  1.00 10.72    -0.621 OA
HETATM   20  O2G GNP A 200       0.962  50.132   6.752  1.00 10.01    -0.621 OA
HETATM   21  O3G GNP A 200       3.371  49.819   6.449  1.00 11.72    -0.621 OA
ENDBRANCH  17  18
ENDBRANCH  14  17
ENDBRANCH  13  14
ENDBRANCH  10  13
ENDBRANCH   9  10
ENDBRANCH   8   9
ENDBRANCH   1   8
BRANCH   7  22
HETATM   22  N9  GNP A 200       2.833  46.540  17.356  1.00  9.54    -0.269 N 
HETATM   23  C4  GNP A 200       3.739  46.245  16.457  1.00  9.54     0.187 A 
HETATM   24  N3  GNP A 200       4.311  46.993  15.536  1.00 10.76    -0.039 NA
HETATM   25  C5  GNP A 200       3.924  44.862  16.699  1.00  8.26     0.162 A 
HETATM   26  C2  GNP A 200       5.158  46.498  14.786  1.00  9.86     0.772 A 
HETATM   27  N1  GNP A 200       5.531  45.063  14.891  1.00 10.22    -0.029 NA
HETATM   28  N2  GNP A 200       5.855  47.020  13.828  1.00 11.49     0.062 N 
HETATM   29  C6  GNP A 200       4.905  44.342  15.816  1.00 10.19     0.251 A 
HETATM   30  O6  GNP A 200       5.223  43.021  15.891  1.00 11.17    -0.167 OA
HETATM   31  N7  GNP A 200       3.176  44.465  17.673  1.00  8.86    -0.219 NA
HETATM   32  C8  GNP A 200       2.415  45.463  18.168  1.00 11.92     0.182 A 
ENDBRANCH   7  22
TORSDOF 8
ENDMDL
MODEL 4
REMARK VINA RESULT:    -6.953      4.162      8.001
REMARK INTER + INTRA:         -11.202
REMARK INTER:                 -10.207
REMARK INTRA:                  -0.996
REMARK UNBOUND:                -0.998
REMARK  8 active torsions:
REMARK  status: ('A' for Active; 'I' for Inactive)
REMARK    1  A    between atoms: PA_1  and  O5'_5 
REMARK    2  A    between atoms: PA_1  and  O3A_24 
REMARK    3  A    between atoms: PB_2  and  N3B_23 
REMARK    4  A    between atoms: PB_2  and  O3A_24 
REMARK    5  A    between atoms: PG_3  and  N3B_23 
REMARK    6  A    between atoms: C5'_4  and  O5'_5 
REMARK    7  A    between atoms: C5'_4  and  C4'_6 
REMARK    8  A    between atoms: C1'_12  and  N9_32 
ROOT
HETATM    1  C4' GNP A 200       1.301  50.285  16.633  1.00 11.60     0.181 C 
HETATM    2  O4' GNP A 200       1.759  49.220  15.741  1.00 10.96    -0.331 OA
HETATM    3  C3' GNP A 200       1.770  49.884  18.040  1.00 12.08     0.216 C 
HETATM    4  O3' GNP A 200       0.728  49.077  18.643  1.00 14.40    -0.218 OA
HETATM    5  C2' GNP A 200       3.017  48.995  17.739  1.00 12.17     0.234 C 
HETATM    6  O2' GNP A 200       3.283  47.945  18.709  1.00 13.60    -0.216 OA
HETATM    7  C1' GNP A 200       2.577  48.256  16.458  1.00 11.60     0.241 C 
ENDROOT
BRANCH   1   8
HETATM    8  C5' GNP A 200       1.785  51.607  16.194  1.00 10.62     0.187 C 
BRANCH   8   9
HETATM    9  O5' GNP A 200       1.834  51.709  14.752  1.00  9.72    -0.268 OA
BRANCH   9  10
HETATM   10  PA  GNP A 200       0.958  52.708  13.998  1.00 10.32     0.418 P 
HETATM   11  O1A GNP A 200       1.545  54.117  14.124  1.00  9.87    -0.624 OA
HETATM   12  O2A GNP A 200      -0.506  52.503  14.329  1.00 11.09    -0.624 OA
BRANCH  10  13
HETATM   13  O3A GNP A 200       1.154  52.189  12.403  1.00  9.21    -0.185 OA
BRANCH  13  14
HETATM   14  PB  GNP A 200       0.918  50.768  11.825  1.00  8.42     0.401 P 
HETATM   15  O1B GNP A 200      -0.555  50.663  11.815  1.00  8.14    -0.628 OA
HETATM   16  O2B GNP A 200       1.651  49.790  12.559  1.00  8.71    -0.628 OA
BRANCH  14  17
HETATM   17  N3B GNP A 200       1.476  50.890  10.154  1.00  9.58    -0.091 NA
BRANCH  17  18
HETATM   18  PG  GNP A 200       1.267  49.728   9.051  1.00  9.51     0.404 P 
HETATM   19  O1G GNP A 200       2.647  49.106   8.722  1.00 10.72    -0.621 OA
HETATM   20  O2G GNP A 200       0.602  50.243   7.918  1.00 10.01    -0.621 OA
HETATM   21  O3G GNP A 200       0.378  48.702   9.807  1.00 11.72    -0.621 OA
ENDBRANCH  17  18
ENDBRANCH  14  17
ENDBRANCH  13  14
ENDBRANCH  10  13
ENDBRANCH   9  10
ENDBRANCH   8   9
ENDBRANCH   1   8
BRANCH   7  22
HETATM   22  N9  GNP A 200       3.655  47.789  15.515  1.00  9.54    -0.269 N 
HETATM   23  C4  GNP A 200       4.162  46.583  15.458  1.00  9.54     0.187 A 
HETATM   24  N3  GNP A 200       3.867  45.493  16.137  1.00 10.76    -0.039 NA
HETATM   25  C5  GNP A 200       5.176  46.758  14.484  1.00  8.26     0.162 A 
HETATM   26  C2  GNP A 200       4.481  44.446  15.911  1.00  9.86     0.772 A 
HETATM   27  N1  GNP A 200       5.567  44.399  14.897  1.00 10.22    -0.029 NA
HETATM   28  N2  GNP A 200       4.369  43.265  16.428  1.00 11.49     0.062 N 
HETATM   29  C6  GNP A 200       5.850  45.530  14.259  1.00 10.19     0.251 A 
HETATM   30  O6  GNP A 200       6.865  45.494  13.355  1.00 11.17    -0.167 OA
HETATM   31  N7  GNP A 200       5.184  47.972  14.049  1.00  8.86    -0.219 NA
HETATM   32  C8  GNP A 200       4.252  48.737  14.655  1.00 11.92     0.182 A 
ENDBRANCH   7  22
TORSDOF 8
ENDMDL
MODEL 5
REMARK VINA RESULT:    -6.904      4.916      8.256
REMARK INTER + INTRA:         -11.131
REMARK INTER:                 -10.338
REMARK INTRA:                  -0.793
REMARK UNBOUND:                -0.998
REMARK  8 active torsions:
REMARK  status: ('A' for Active; 'I' for Inactive)
REMARK    1  A    between atoms: PA_1  and  O5'_5 
REMARK    2  A    between atoms: PA_1  and  O3A_24 
REMARK    3  A    between atoms: PB_2  and  N3B_23 
REMARK    4  A    between atoms: PB_2  and  O3A_24 
REMARK    5  A    between atoms: PG_3  and  N3B_23 
REMARK    6  A    between atoms: C5'_4  and  O5'_5 
REMARK    7  A    between atoms: C5'_4  and  C4'_6 
REMARK    8  A    between atoms: C1'_12  and  N9_32 
ROOT
HETATM    1  C4' GNP A 200       0.014  49.125  18.813  1.00 11.60     0.181 C 
HETATM    2  O4' GNP A 200       1.139  48.220  18.579  1.00 10.96    -0.331 OA
HETATM    3  C3' GNP A 200       0.584  50.546  18.680  1.00 12.08     0.216 C 
HETATM    4  O3' GNP A 200       1.053  50.961  19.988  1.00 14.40    -0.218 OA
HETATM    5  C2' GNP A 200       1.802  50.331  17.728  1.00 12.17     0.234 C 
HETATM    6  O2' GNP A 200       2.914  51.249  17.922  1.00 13.60    -0.216 OA
HETATM    7  C1' GNP A 200       2.329  48.958  18.192  1.00 11.60     0.241 C 
ENDROOT
BRANCH   1   8
HETATM    8  C5' GNP A 200      -1.110  48.843  17.901  1.00 10.62     0.187 C 
BRANCH   8   9
HETATM    9  O5' GNP A 200      -1.518  47.457  17.965  1.00  9.72    -0.268 OA
BRANCH   9  10
HETATM   10  PA  GNP A 200      -2.994  47.062  17.926  1.00 10.32     0.418 P 
HETATM   11  O1A GNP A 200      -3.758  47.789  19.037  1.00  9.87    -0.624 OA
HETATM   12  O2A GNP A 200      -3.150  45.560  17.804  1.00 11.09    -0.624 OA
BRANCH  10  13
HETATM   13  O3A GNP A 200      -3.473  47.705  16.440  1.00  9.21    -0.185 OA
BRANCH  13  14
HETATM   14  PB  GNP A 200      -4.491  47.114  15.427  1.00  8.42     0.401 P 
HETATM   15  O1B GNP A 200      -4.665  48.217  14.462  1.00  8.14    -0.628 OA
HETATM   16  O2B GNP A 200      -5.651  46.624  16.096  1.00  8.71    -0.628 OA
BRANCH  14  17
HETATM   17  N3B GNP A 200      -3.595  45.817  14.630  1.00  9.58    -0.091 NA
BRANCH  17  18
HETATM   18  PG  GNP A 200      -4.259  44.776  13.589  1.00  9.51     0.404 P 
HETATM   19  O1G GNP A 200      -4.935  43.638  14.391  1.00 10.72    -0.621 OA
HETATM   20  O2G GNP A 200      -3.290  44.315  12.673  1.00 10.01    -0.621 OA
HETATM   21  O3G GNP A 200      -5.332  45.648  12.880  1.00 11.72    -0.621 OA
ENDBRANCH  17  18
ENDBRANCH  14  17
ENDBRANCH  13  14
ENDBRANCH  10  13
ENDBRANCH   9  10
ENDBRANCH   8   9
ENDBRANCH   1   8
BRANCH   7  22
HETATM   22  N9  GNP A 200       3.074  48.118  17.187  1.00  9.54    -0.269 N 
HETATM   23  C4  GNP A 200       3.673  46.978  17.424  1.00  9.54     0.187 A 
HETATM   24  N3  GNP A 200       3.757  46.266  18.529  1.00 10.76    -0.039 NA
HETATM   25  C5  GNP A 200       4.270  46.715  16.167  1.00  8.26     0.162 A 
HETATM   26  C2  GNP A 200       4.381  45.200  18.524  1.00  9.86     0.772 A 
HETATM   27  N1  GNP A 200       5.059  44.715  17.293  1.00 10.22    -0.029 NA
HETATM   28  N2  GNP A 200       4.593  44.333  19.461  1.00 11.49     0.062 N 
HETATM   29  C6  GNP A 200       4.971  45.483  16.211  1.00 10.19     0.251 A 
HETATM   30  O6  GNP A 200       5.618  45.055  15.094  1.00 11.17    -0.167 OA
HETATM   31  N7  GNP A 200       3.984  47.649  15.323  1.00  8.86    -0.219 NA
HETATM   32  C8  GNP A 200       3.227  48.619  15.875  1.00 11.92     0.182 A 
ENDBRANCH   7  22
TORSDOF 8
ENDMDL
MODEL 6
REMARK VINA RESULT:    -6.791      4.142      8.399
REMARK INTER + INTRA:         -10.964
REMARK INTER:                  -9.830
REMARK INTRA:                  -1.134
REMARK UNBOUND:                -0.998
REMARK  8 active torsions:
REMARK  status: ('A' for Active; 'I' for Inactive)
REMARK    1  A    between atoms: PA_1  and  O5'_5 
REMARK    2  A    between atoms: PA_1  and  O3A_24 
REMARK    3  A    between atoms: PB_2  and  N3B_23 
REMARK    4  A    between atoms: PB_2  and  O3A_24 
REMARK    5  A    between atoms: PG_3  and  N3B_23 
REMARK    6  A    between atoms: C5'_4  and  O5'_5 
REMARK    7  A    between atoms: C5'_4  and  C4'_6 
REMARK    8  A    between atoms: C1'_12  and  N9_32 
ROOT
HETATM    1  C4' GNP A 200      -0.171  49.988  17.997  1.00 11.60     0.181 C 
HETATM    2  O4' GNP A 200       0.469  48.733  17.602  1.00 10.96    -0.331 OA
HETATM    3  C3' GNP A 200       0.715  50.580  19.104  1.00 12.08     0.216 C 
HETATM    4  O3' GNP A 200       0.245  50.063  20.374  1.00 14.40    -0.218 OA
HETATM    5  C2' GNP A 200       2.115  49.973  18.775  1.00 12.17     0.234 C 
HETATM    6  O2' GNP A 200       2.986  49.757  19.920  1.00 13.60    -0.216 OA
HETATM    7  C1' GNP A 200       1.740  48.559  18.284  1.00 11.60     0.241 C 
ENDROOT
BRANCH   1   8
HETATM    8  C5' GNP A 200      -0.367  50.884  16.843  1.00 10.62     0.187 C 
BRANCH   8   9
HETATM    9  O5' GNP A 200      -0.194  50.188  15.587  1.00  9.72    -0.268 OA
BRANCH   9  10
HETATM   10  PA  GNP A 200      -0.854  50.692  14.304  1.00 10.32     0.418 P 
HETATM   11  O1A GNP A 200      -1.497  52.060  14.550  1.00  9.87    -0.624 OA
HETATM   12  O2A GNP A 200      -1.692  49.604  13.664  1.00 11.09    -0.624 OA
BRANCH  10  13
HETATM   13  O3A GNP A 200       0.485  50.904  13.299  1.00  9.21    -0.185 OA
BRANCH  13  14
HETATM   14  PB  GNP A 200       0.499  51.266  11.788  1.00  8.42     0.401 P 
HETATM   15  O1B GNP A 200       1.560  52.290  11.710  1.00  8.14    -0.628 OA
HETATM   16  O2B GNP A 200      -0.805  51.622  11.338  1.00  8.71    -0.628 OA
BRANCH  14  17
HETATM   17  N3B GNP A 200       1.088  49.797  11.004  1.00  9.58    -0.091 NA
BRANCH  17  18
HETATM   18  PG  GNP A 200       1.173  49.608   9.402  1.00  9.51     0.404 P 
HETATM   19  O1G GNP A 200       2.637  49.277   9.021  1.00 10.72    -0.621 OA
HETATM   20  O2G GNP A 200       0.670  50.752   8.747  1.00 10.01    -0.621 OA
HETATM   21  O3G GNP A 200       0.260  48.374   9.160  1.00 11.72    -0.621 OA
ENDBRANCH  17  18
ENDBRANCH  14  17
ENDBRANCH  13  14
ENDBRANCH  10  13
ENDBRANCH   9  10
ENDBRANCH   8   9
ENDBRANCH   1   8
BRANCH   7  22
HETATM   22  N9  GNP A 200       2.680  47.880  17.322  1.00  9.54    -0.269 N 
HETATM   23  C4  GNP A 200       3.420  46.830  17.575  1.00  9.54     0.187 A 
HETATM   24  N3  GNP A 200       3.519  46.090  18.660  1.00 10.76    -0.039 NA
HETATM   25  C5  GNP A 200       4.149  46.711  16.367  1.00  8.26     0.162 A 
HETATM   26  C2  GNP A 200       4.292  45.127  18.676  1.00  9.86     0.772 A 
HETATM   27  N1  GNP A 200       5.131  44.799  17.494  1.00 10.22    -0.029 NA
HETATM   28  N2  GNP A 200       4.553  44.261  19.601  1.00 11.49     0.062 N 
HETATM   29  C6  GNP A 200       5.019  45.593  16.433  1.00 10.19     0.251 A 
HETATM   30  O6  GNP A 200       5.810  45.312  15.363  1.00 11.17    -0.167 OA
HETATM   31  N7  GNP A 200       3.798  47.629  15.531  1.00  8.86    -0.219 NA
HETATM   32  C8  GNP A 200       2.863  48.454  16.044  1.00 11.92     0.182 A 
ENDBRANCH   7  22
TORSDOF 8
ENDMDL
MODEL 7
REMARK VINA RESULT:    -6.781      3.928      8.365
REMARK INTER + INTRA:         -10.950
REMARK INTER:                 -10.032
REMARK INTRA:                  -0.918
REMARK UNBOUND:                -0.998
REMARK  8 active torsions:
REMARK  status: ('A' for Active; 'I' for Inactive)
REMARK    1  A    between atoms: PA_1  and  O5'_5 
REMARK    2  A    between atoms: PA_1  and  O3A_24 
REMARK    3  A    between atoms: PB_2  and  N3B_23 
REMARK    4  A    between atoms: PB_2  and  O3A_24 
REMARK    5  A    between atoms: PG_3  and  N3B_23 
REMARK    6  A    between atoms: C5'_4  and  O5'_5 
REMARK    7  A    between atoms: C5'_4  and  C4'_6 
REMARK    8  A    between atoms: C1'_12  and  N9_32 
ROOT
HETATM    1  C4' GNP A 200       0.908  50.283  14.631  1.00 11.60     0.181 C 
HETATM    2  O4' GNP A 200       1.091  49.291  15.690  1.00 10.96    -0.331 OA
HETATM    3  C3' GNP A 200       1.757  51.496  15.040  1.00 12.08     0.216 C 
HETATM    4  O3' GNP A 200       0.929  52.366  15.851  1.00 14.40    -0.218 OA
HETATM    5  C2' GNP A 200       2.866  50.846  15.926  1.00 12.17     0.234 C 
HETATM    6  O2' GNP A 200       3.396  51.694  16.982  1.00 13.60    -0.216 OA
HETATM    7  C1' GNP A 200       2.078  49.740  16.658  1.00 11.60     0.241 C 
ENDROOT
BRANCH   1   8
HETATM    8  C5' GNP A 200       1.248  49.732  13.306  1.00 10.62     0.187 C 
BRANCH   8   9
HETATM    9  O5' GNP A 200       1.799  50.741  12.430  1.00  9.72    -0.268 OA
BRANCH   9  10
HETATM   10  PA  GNP A 200       1.183  51.025  11.060  1.00 10.32     0.418 P 
HETATM   11  O1A GNP A 200       1.908  52.199  10.395  1.00  9.87    -0.624 OA
HETATM   12  O2A GNP A 200      -0.329  51.063  11.145  1.00 11.09    -0.624 OA
BRANCH  10  13
HETATM   13  O3A GNP A 200       1.569  49.613  10.220  1.00  9.21    -0.185 OA
BRANCH  13  14
HETATM   14  PB  GNP A 200       1.049  49.156   8.830  1.00  8.42     0.401 P 
HETATM   15  O1B GNP A 200      -0.270  48.576   9.152  1.00  8.14    -0.628 OA
HETATM   16  O2B GNP A 200       2.003  48.321   8.178  1.00  8.71    -0.628 OA
BRANCH  14  17
HETATM   17  N3B GNP A 200       0.790  50.667   7.954  1.00  9.58    -0.091 NA
BRANCH  17  18
HETATM   18  PG  GNP A 200       1.803  51.240   6.833  1.00  9.51     0.404 P 
HETATM   19  O1G GNP A 200       1.771  50.293   5.609  1.00 10.72    -0.621 OA
HETATM   20  O2G GNP A 200       3.094  51.405   7.379  1.00 10.01    -0.621 OA
HETATM   21  O3G GNP A 200       1.166  52.610   6.473  1.00 11.72    -0.621 OA
ENDBRANCH  17  18
ENDBRANCH  14  17
ENDBRANCH  13  14
ENDBRANCH  10  13
ENDBRANCH   9  10
ENDBRANCH   8   9
ENDBRANCH   1   8
BRANCH   7  22
HETATM   22  N9  GNP A 200       2.842  48.526  17.119  1.00  9.54    -0.269 N 
HETATM   23  C4  GNP A 200       3.690  47.829  16.405  1.00  9.54     0.187 A 
HETATM   24  N3  GNP A 200       4.122  48.002  15.173  1.00 10.76    -0.039 NA
HETATM   25  C5  GNP A 200       4.005  46.779  17.302  1.00  8.26     0.162 A 
HETATM   26  C2  GNP A 200       4.941  47.211  14.694  1.00  9.86     0.772 A 
HETATM   27  N1  GNP A 200       5.435  46.051  15.481  1.00 10.22    -0.029 NA
HETATM   28  N2  GNP A 200       5.511  47.176  13.533  1.00 11.49     0.062 N 
HETATM   29  C6  GNP A 200       4.948  45.900  16.709  1.00 10.19     0.251 A 
HETATM   30  O6  GNP A 200       5.375  44.820  17.417  1.00 11.17    -0.167 OA
HETATM   31  N7  GNP A 200       3.375  46.929  18.418  1.00  8.86    -0.219 NA
HETATM   32  C8  GNP A 200       2.580  48.018  18.411  1.00 11.92     0.182 A 
ENDBRANCH   7  22
TORSDOF 8
ENDMDL
MODEL 8
REMARK VINA RESULT:    -6.580      7.125      9.002
REMARK INTER + INTRA:         -10.655
REMARK INTER:                 -10.058
REMARK INTRA:                  -0.598
REMARK UNBOUND:                -0.998
REMARK  8 active torsions:
REMARK  status: ('A' for Active; 'I' for Inactive)
REMARK    1  A    between atoms: PA_1  and  O5'_5 
REMARK    2  A    between atoms: PA_1  and  O3A_24 
REMARK    3  A    between atoms: PB_2  and  N3B_23 
REMARK    4  A    between atoms: PB_2  and  O3A_24 
REMARK    5  A    between atoms: PG_3  and  N3B_23 
REMARK    6  A    between atoms: C5'_4  and  O5'_5 
REMARK    7  A    between atoms: C5'_4  and  C4'_6 
REMARK    8  A    between atoms: C1'_12  and  N9_32 
ROOT
HETATM    1  C4' GNP A 200      -3.040  49.050   9.284  1.00 11.60     0.181 C 
HETATM    2  O4' GNP A 200      -1.768  49.583   8.796  1.00 10.96    -0.331 OA
HETATM    3  C3' GNP A 200      -3.807  48.587   8.035  1.00 12.08     0.216 C 
HETATM    4  O3' GNP A 200      -4.586  49.710   7.550  1.00 14.40    -0.218 OA
HETATM    5  C2' GNP A 200      -2.655  48.272   7.030  1.00 12.17     0.234 C 
HETATM    6  O2' GNP A 200      -2.981  48.469   5.627  1.00 13.60    -0.216 OA
HETATM    7  C1' GNP A 200      -1.632  49.378   7.364  1.00 11.60     0.241 C 
ENDROOT
BRANCH   1   8
HETATM    8  C5' GNP A 200      -2.835  47.990  10.288  1.00 10.62     0.187 C 
BRANCH   8   9
HETATM    9  O5' GNP A 200      -4.013  47.167  10.449  1.00  9.72    -0.268 OA
BRANCH   9  10
HETATM   10  PA  GNP A 200      -5.108  47.536  11.449  1.00 10.32     0.418 P 
HETATM   11  O1A GNP A 200      -6.473  47.532  10.754  1.00  9.87    -0.624 OA
HETATM   12  O2A GNP A 200      -4.712  48.754  12.259  1.00 11.09    -0.624 OA
BRANCH  10  13
HETATM   13  O3A GNP A 200      -5.046  46.226  12.513  1.00  9.21    -0.185 OA
BRANCH  13  14
HETATM   14  PB  GNP A 200      -3.806  45.653  13.251  1.00  8.42     0.401 P 
HETATM   15  O1B GNP A 200      -2.984  46.857  13.488  1.00  8.14    -0.628 OA
HETATM   16  O2B GNP A 200      -3.222  44.583  12.513  1.00  8.71    -0.628 OA
BRANCH  14  17
HETATM   17  N3B GNP A 200      -4.450  45.107  14.803  1.00  9.58    -0.091 NA
BRANCH  17  18
HETATM   18  PG  GNP A 200      -5.906  44.434  14.983  1.00  9.51     0.404 P 
HETATM   19  O1G GNP A 200      -6.978  45.549  14.914  1.00 10.72    -0.621 OA
HETATM   20  O2G GNP A 200      -5.955  43.685  16.178  1.00 10.01    -0.621 OA
HETATM   21  O3G GNP A 200      -6.007  43.511  13.737  1.00 11.72    -0.621 OA
ENDBRANCH  17  18
ENDBRANCH  14  17
ENDBRANCH  13  14
ENDBRANCH  10  13
ENDBRANCH   9  10
ENDBRANCH   8   9
ENDBRANCH   1   8
BRANCH   7  22
HETATM   22  N9  GNP A 200      -0.179  49.094   7.085  1.00  9.54    -0.269 N 
HETATM   23  C4  GNP A 200       0.401  49.115   5.910  1.00  9.54     0.187 A 
HETATM   24  N3  GNP A 200      -0.080  49.410   4.720  1.00 10.76    -0.039 NA
HETATM   25  C5  GNP A 200       1.707  48.681   6.243  1.00  8.26     0.162 A 
HETATM   26  C2  GNP A 200       0.662  49.369   3.733  1.00  9.86     0.772 A 
HETATM   27  N1  GNP A 200       2.087  48.969   3.863  1.00 10.22    -0.029 NA
HETATM   28  N2  GNP A 200       0.431  49.620   2.485  1.00 11.49     0.062 N 
HETATM   29  C6  GNP A 200       2.519  48.651   5.080  1.00 10.19     0.251 A 
HETATM   30  O6  GNP A 200       3.815  48.254   5.193  1.00 11.17    -0.167 OA
HETATM   31  N7  GNP A 200       1.807  48.465   7.511  1.00  8.86    -0.219 NA
HETATM   32  C8  GNP A 200       0.644  48.685   8.157  1.00 11.92     0.182 A 
ENDBRANCH   7  22
TORSDOF 8
ENDMDL
MODEL 9
REMARK VINA RESULT:    -6.539      4.962      8.288
REMARK INTER + INTRA:         -10.596
REMARK INTER:                  -9.438
REMARK INTRA:                  -1.158
REMARK UNBOUND:                -0.998
REMARK  8 active torsions:
REMARK  status: ('A' for Active; 'I' for Inactive)
REMARK    1  A    between atoms: PA_1  and  O5'_5 
REMARK    2  A    between atoms: PA_1  and  O3A_24 
REMARK    3  A    between atoms: PB_2  and  N3B_23 
REMARK    4  A    between atoms: PB_2  and  O3A_24 
REMARK    5  A    between atoms: PG_3  and  N3B_23 
REMARK    6  A    between atoms: C5'_4  and  O5'_5 
REMARK    7  A    between atoms: C5'_4  and  C4'_6 
REMARK    8  A    between atoms: C1'_12  and  N9_32 
ROOT
HETATM    1  C4' GNP A 200       1.982  50.278  17.352  1.00 11.60     0.181 C 
HETATM    2  O4' GNP A 200       2.873  49.159  17.661  1.00 10.96    -0.331 OA
HETATM    3  C3' GNP A 200       2.121  50.519  15.841  1.00 12.08     0.216 C 
HETATM    4  O3' GNP A 200       3.203  51.463  15.639  1.00 14.40    -0.218 OA
HETATM    5  C2' GNP A 200       2.544  49.112  15.314  1.00 12.17     0.234 C 
HETATM    6  O2' GNP A 200       3.385  49.119  14.127  1.00 13.60    -0.216 OA
HETATM    7  C1' GNP A 200       3.457  48.609  16.450  1.00 11.60     0.241 C 
ENDROOT
BRANCH   1   8
HETATM    8  C5' GNP A 200       0.601  50.010  17.792  1.00 10.62     0.187 C 
BRANCH   8   9
HETATM    9  O5' GNP A 200       0.007  51.163  18.432  1.00  9.72    -0.268 OA
BRANCH   9  10
HETATM   10  PA  GNP A 200      -0.143  51.238  19.951  1.00 10.32     0.418 P 
HETATM   11  O1A GNP A 200      -0.197  49.825  20.540  1.00  9.87    -0.624 OA
HETATM   12  O2A GNP A 200      -1.224  52.225  20.340  1.00 11.09    -0.624 OA
BRANCH  10  13
HETATM   13  O3A GNP A 200       1.322  51.948  20.398  1.00  9.21    -0.185 OA
BRANCH  13  14
HETATM   14  PB  GNP A 200       2.407  51.379  21.352  1.00  8.42     0.401 P 
HETATM   15  O1B GNP A 200       3.240  52.565  21.638  1.00  8.14    -0.628 OA
HETATM   16  O2B GNP A 200       3.044  50.240  20.780  1.00  8.71    -0.628 OA
BRANCH  14  17
HETATM   17  N3B GNP A 200       1.512  50.965  22.817  1.00  9.58    -0.091 NA
BRANCH  17  18
HETATM   18  PG  GNP A 200       1.087  52.042  23.944  1.00  9.51     0.404 P 
HETATM   19  O1G GNP A 200       0.439  53.261  23.242  1.00 10.72    -0.621 OA
HETATM   20  O2G GNP A 200       2.201  52.383  24.740  1.00 10.01    -0.621 OA
HETATM   21  O3G GNP A 200       0.024  51.265  24.768  1.00 11.72    -0.621 OA
ENDBRANCH  17  18
ENDBRANCH  14  17
ENDBRANCH  13  14
ENDBRANCH  10  13
ENDBRANCH   9  10
ENDBRANCH   8   9
ENDBRANCH   1   8
BRANCH   7  22
HETATM   22  N9  GNP A 200       3.577  47.119  16.643  1.00  9.54    -0.269 N 
HETATM   23  C4  GNP A 200       4.323  46.306  15.938  1.00  9.54     0.187 A 
HETATM   24  N3  GNP A 200       5.158  46.547  14.948  1.00 10.76    -0.039 NA
HETATM   25  C5  GNP A 200       3.961  45.053  16.490  1.00  8.26     0.162 A 
HETATM   26  C2  GNP A 200       5.771  45.612  14.423  1.00  9.86     0.772 A 
HETATM   27  N1  GNP A 200       5.566  44.212  14.877  1.00 10.22    -0.029 NA
HETATM   28  N2  GNP A 200       6.637  45.596  13.462  1.00 11.49     0.062 N 
HETATM   29  C6  GNP A 200       4.690  44.015  15.857  1.00 10.19     0.251 A 
HETATM   30  O6  GNP A 200       4.478  42.730  16.250  1.00 11.17    -0.167 OA
HETATM   31  N7  GNP A 200       3.095  45.206  17.435  1.00  8.86    -0.219 NA
HETATM   32  C8  GNP A 200       2.759  46.500  17.614  1.00 11.92     0.182 A 
ENDBRANCH   7  22
TORSDOF 8
ENDMDL
