MODEL 1
REMARK VINA RESULT:    -7.521      0.000      0.000
REMARK INTER + INTRA:         -11.607
REMARK INTER:                 -11.039
REMARK INTRA:                  -0.568
REMARK UNBOUND:                -0.568
REMARK  8 active torsions:
REMARK  status: ('A' for Active; 'I' for Inactive)
REMARK    1  A    between atoms: PA_1  and  O5'_5 
REMARK    2  A    between atoms: PA_1  and  O3A_24 
REMARK    3  A    between atoms: PB_2  and  N3B_23 
REMARK    4  A    between atoms: PB_2  and  O3A_24 
REMARK    5  A    between atoms: PG_3  and  N3B_23 
REMARK    6  A    between atoms: C5'_4  and  O5'_5 
REMARK    7  A    between atoms: C5'_4  and  C4'_6 
REMARK    8  A    between atoms: C1'_12  and  N9_32 
ROOT
HETATM    1  C4' GNP A 200       1.323  50.525  14.552  1.00 11.60     0.181 C 
HETATM    2  O4' GNP A 200       1.732  50.993  13.228  1.00 10.96    -0.331 OA
HETATM    3  C3' GNP A 200      -0.202  50.351  14.483  1.00 12.08     0.216 C 
HETATM    4  O3' GNP A 200      -0.811  51.612  14.857  1.00 14.40    -0.218 OA
HETATM    5  C2' GNP A 200      -0.440  50.081  12.964  1.00 12.17     0.234 C 
HETATM    6  O2' GNP A 200      -1.722  50.533  12.445  1.00 13.60    -0.216 OA
HETATM    7  C1' GNP A 200       0.607  51.005  12.309  1.00 11.60     0.241 C 
ENDROOT
BRANCH   1   8
HETATM    8  C5' GNP A 200       2.049  49.303  14.944  1.00 10.62     0.187 C 
BRANCH   8   9
HETATM    9  O5' GNP A 200       2.699  49.452  16.228  1.00  9.72    -0.268 OA
BRANCH   9  10
HETATM   10  PA  GNP A 200       2.269  48.621  17.436  1.00 10.32     0.418 P 
HETATM   11  O1A GNP A 200       0.765  48.785  17.673  1.00  9.87    -0.624 OA
HETATM   12  O2A GNP A 200       3.213  48.833  18.602  1.00 11.09    -0.624 OA
BRANCH  10  13
HETATM   13  O3A GNP A 200       2.555  47.052  16.883  1.00  9.21    -0.185 OA
BRANCH  13  14
HETATM   14  PB  GNP A 200       3.883  46.249  16.930  1.00  8.42     0.401 P 
HETATM   15  O1B GNP A 200       4.064  46.006  18.375  1.00  8.14    -0.628 OA
HETATM   16  O2B GNP A 200       4.920  46.937  16.235  1.00  8.71    -0.628 OA
BRANCH  14  17
HETATM   17  N3B GNP A 200       3.480  44.713  16.156  1.00  9.58    -0.091 NA
BRANCH  17  18
HETATM   18  PG  GNP A 200       4.513  43.870  15.244  1.00  9.51     0.404 P 
HETATM   19  O1G GNP A 200       5.269  42.869  16.152  1.00 10.72    -0.621 OA
HETATM   20  O2G GNP A 200       5.369  44.742  14.539  1.00 10.01    -0.621 OA
HETATM   21  O3G GNP A 200       3.564  43.109  14.277  1.00 11.72    -0.621 OA
ENDBRANCH  17  18
ENDBRANCH  14  17
ENDBRANCH  13  14
ENDBRANCH  10  13
ENDBRANCH   9  10
ENDBRANCH   8   9
ENDBRANCH   1   8
BRANCH   7  22
HETATM   22  N9  GNP A 200       1.129  50.619  10.950  1.00  9.54    -0.269 N 
HETATM   23  C4  GNP A 200       1.839  51.375  10.151  1.00  9.54     0.187 A 
HETATM   24  N3  GNP A 200       2.305  52.596  10.313  1.00 10.76    -0.039 NA
HETATM   25  C5  GNP A 200       1.947  50.543   9.010  1.00  8.26     0.162 A 
HETATM   26  C2  GNP A 200       2.968  53.123   9.414  1.00  9.86     0.772 A 
HETATM   27  N1  GNP A 200       3.231  52.408   8.138  1.00 10.22    -0.029 NA
HETATM   28  N2  GNP A 200       3.531  54.286   9.342  1.00 11.49     0.062 N 
HETATM   29  C6  GNP A 200       2.715  51.190   8.009  1.00 10.19     0.251 A 
HETATM   30  O6  GNP A 200       2.930  50.549   6.829  1.00 11.17    -0.167 OA
HETATM   31  N7  GNP A 200       1.346  49.418   9.209  1.00  8.86    -0.219 NA
HETATM   32  C8  GNP A 200       0.767  49.359  10.425  1.00 11.92     0.182 A 
ENDBRANCH   7  22
TORSDOF 8
ENDMDL
MODEL 2
REMARK VINA RESULT:    -7.348      5.640      8.302
REMARK INTER + INTRA:         -11.353
REMARK INTER:                 -10.368
REMARK INTRA:                  -0.985
REMARK UNBOUND:                -0.568
REMARK  8 active torsions:
REMARK  status: ('A' for Active; 'I' for Inactive)
REMARK    1  A    between atoms: PA_1  and  O5'_5 
REMARK    2  A    between atoms: PA_1  and  O3A_24 
REMARK    3  A    between atoms: PB_2  and  N3B_23 
REMARK    4  A    between atoms: PB_2  and  O3A_24 
REMARK    5  A    between atoms: PG_3  and  N3B_23 
REMARK    6  A    between atoms: C5'_4  and  O5'_5 
REMARK    7  A    between atoms: C5'_4  and  C4'_6 
REMARK    8  A    between atoms: C1'_12  and  N9_32 
ROOT
HETATM    1  C4' GNP A 200      -0.225  49.082  18.542  1.00 11.60     0.181 C 
HETATM    2  O4' GNP A 200       0.869  48.137  18.317  1.00 10.96    -0.331 OA
HETATM    3  C3' GNP A 200       0.433  50.465  18.655  1.00 12.08     0.216 C 
HETATM    4  O3' GNP A 200       0.770  50.686  20.047  1.00 14.40    -0.218 OA
HETATM    5  C2' GNP A 200       1.740  50.285  17.819  1.00 12.17     0.234 C 
HETATM    6  O2' GNP A 200       2.870  51.094  18.248  1.00 13.60    -0.216 OA
HETATM    7  C1' GNP A 200       2.134  48.833  18.157  1.00 11.60     0.241 C 
ENDROOT
BRANCH   1   8
HETATM    8  C5' GNP A 200      -1.249  48.989  17.485  1.00 10.62     0.187 C 
BRANCH   8   9
HETATM    9  O5' GNP A 200      -2.560  48.714  18.031  1.00  9.72    -0.268 OA
BRANCH   9  10
HETATM   10  PA  GNP A 200      -3.104  47.288  18.106  1.00 10.32     0.418 P 
HETATM   11  O1A GNP A 200      -3.771  47.054  19.465  1.00  9.87    -0.624 OA
HETATM   12  O2A GNP A 200      -2.072  46.288  17.626  1.00 11.09    -0.624 OA
BRANCH  10  13
HETATM   13  O3A GNP A 200      -4.306  47.324  16.920  1.00  9.21    -0.185 OA
BRANCH  13  14
HETATM   14  PB  GNP A 200      -5.007  46.121  16.233  1.00  8.42     0.401 P 
HETATM   15  O1B GNP A 200      -6.195  46.747  15.618  1.00  8.14    -0.628 OA
HETATM   16  O2B GNP A 200      -5.217  45.057  17.157  1.00  8.71    -0.628 OA
BRANCH  14  17
HETATM   17  N3B GNP A 200      -3.893  45.660  14.942  1.00  9.58    -0.091 NA
BRANCH  17  18
HETATM   18  PG  GNP A 200      -4.338  44.842  13.622  1.00  9.51     0.404 P 
HETATM   19  O1G GNP A 200      -3.064  44.411  12.856  1.00 10.72    -0.621 OA
HETATM   20  O2G GNP A 200      -5.224  45.616  12.843  1.00 10.01    -0.621 OA
HETATM   21  O3G GNP A 200      -5.054  43.600  14.222  1.00 11.72    -0.621 OA
ENDBRANCH  17  18
ENDBRANCH  14  17
ENDBRANCH  13  14
ENDBRANCH  10  13
ENDBRANCH   9  10
ENDBRANCH   8   9
ENDBRANCH   1   8
BRANCH   7  22
HETATM   22  N9  GNP A 200       2.943  48.073  17.139  1.00  9.54    -0.269 N 
HETATM   23  C4  GNP A 200       3.604  46.962  17.350  1.00  9.54     0.187 A 
HETATM   24  N3  GNP A 200       3.711  46.218  18.432  1.00 10.76    -0.039 NA
HETATM   25  C5  GNP A 200       4.236  46.777  16.096  1.00  8.26     0.162 A 
HETATM   26  C2  GNP A 200       4.396  45.190  18.403  1.00  9.86     0.772 A 
HETATM   27  N1  GNP A 200       5.121  44.788  17.169  1.00 10.22    -0.029 NA
HETATM   28  N2  GNP A 200       4.642  44.306  19.314  1.00 11.49     0.062 N 
HETATM   29  C6  GNP A 200       5.007  45.587  16.112  1.00 10.19     0.251 A 
HETATM   30  O6  GNP A 200       5.697  45.235  14.994  1.00 11.17    -0.167 OA
HETATM   31  N7  GNP A 200       3.911  47.721  15.279  1.00  8.86    -0.219 NA
HETATM   32  C8  GNP A 200       3.089  48.626  15.848  1.00 11.92     0.182 A 
ENDBRANCH   7  22
TORSDOF 8
ENDMDL
MODEL 3
REMARK VINA RESULT:    -7.311      5.881      8.888
REMARK INTER + INTRA:         -11.298
REMARK INTER:                 -10.685
REMARK INTRA:                  -0.613
REMARK UNBOUND:                -0.568
REMARK  8 active torsions:
REMARK  status: ('A' for Active; 'I' for Inactive)
REMARK    1  A    between atoms: PA_1  and  O5'_5 
REMARK    2  A    between atoms: PA_1  and  O3A_24 
REMARK    3  A    between atoms: PB_2  and  N3B_23 
REMARK    4  A    between atoms: PB_2  and  O3A_24 
REMARK    5  A    between atoms: PG_3  and  N3B_23 
REMARK    6  A    between atoms: C5'_4  and  O5'_5 
REMARK    7  A    between atoms: C5'_4  and  C4'_6 
REMARK    8  A    between atoms: C1'_12  and  N9_32 
ROOT
HETATM    1  C4' GNP A 200       1.220  49.198  18.156  1.00 11.60     0.181 C 
HETATM    2  O4' GNP A 200       0.113  48.977  19.088  1.00 10.96    -0.331 OA
HETATM    3  C3' GNP A 200       0.867  50.479  17.384  1.00 12.08     0.216 C 
HETATM    4  O3' GNP A 200       0.100  50.096  16.215  1.00 14.40    -0.218 OA
HETATM    5  C2' GNP A 200      -0.051  51.237  18.392  1.00 12.17     0.234 C 
HETATM    6  O2' GNP A 200      -1.066  52.089  17.792  1.00 13.60    -0.216 OA
HETATM    7  C1' GNP A 200      -0.833  50.078  19.043  1.00 11.60     0.241 C 
ENDROOT
BRANCH   1   8
HETATM    8  C5' GNP A 200       2.516  49.258  18.856  1.00 10.62     0.187 C 
BRANCH   8   9
HETATM    9  O5' GNP A 200       3.094  47.943  19.031  1.00  9.72    -0.268 OA
BRANCH   9  10
HETATM   10  PA  GNP A 200       3.106  46.925  17.891  1.00 10.32     0.418 P 
HETATM   11  O1A GNP A 200       3.878  47.489  16.695  1.00  9.87    -0.624 OA
HETATM   12  O2A GNP A 200       1.720  46.360  17.655  1.00 11.09    -0.624 OA
BRANCH  10  13
HETATM   13  O3A GNP A 200       4.012  45.673  18.570  1.00  9.21    -0.185 OA
BRANCH  13  14
HETATM   14  PB  GNP A 200       4.818  44.568  17.834  1.00  8.42     0.401 P 
HETATM   15  O1B GNP A 200       4.573  43.377  18.670  1.00  8.14    -0.628 OA
HETATM   16  O2B GNP A 200       6.169  44.973  17.629  1.00  8.71    -0.628 OA
BRANCH  14  17
HETATM   17  N3B GNP A 200       3.955  44.359  16.306  1.00  9.58    -0.091 NA
BRANCH  17  18
HETATM   18  PG  GNP A 200       4.611  43.690  14.990  1.00  9.51     0.404 P 
HETATM   19  O1G GNP A 200       3.484  43.032  14.158  1.00 10.72    -0.621 OA
HETATM   20  O2G GNP A 200       5.634  42.791  15.357  1.00 10.01    -0.621 OA
HETATM   21  O3G GNP A 200       5.188  44.922  14.239  1.00 11.72    -0.621 OA
ENDBRANCH  17  18
ENDBRANCH  14  17
ENDBRANCH  13  14
ENDBRANCH  10  13
ENDBRANCH   9  10
ENDBRANCH   8   9
ENDBRANCH   1   8
BRANCH   7  22
HETATM   22  N9  GNP A 200      -1.353  50.283  20.442  1.00  9.54    -0.269 N 
HETATM   23  C4  GNP A 200      -2.320  49.609  21.014  1.00  9.54     0.187 A 
HETATM   24  N3  GNP A 200      -3.039  48.598  20.573  1.00 10.76    -0.039 NA
HETATM   25  C5  GNP A 200      -2.435  50.291  22.250  1.00  8.26     0.162 A 
HETATM   26  C2  GNP A 200      -3.910  48.105  21.298  1.00  9.86     0.772 A 
HETATM   27  N1  GNP A 200      -4.175  48.649  22.655  1.00 10.22    -0.029 NA
HETATM   28  N2  GNP A 200      -4.724  47.119  21.099  1.00 11.49     0.062 N 
HETATM   29  C6  GNP A 200      -3.444  49.689  23.044  1.00 10.19     0.251 A 
HETATM   30  O6  GNP A 200      -3.708  50.206  24.274  1.00 11.17    -0.167 OA
HETATM   31  N7  GNP A 200      -1.572  51.248  22.324  1.00  8.86    -0.219 NA
HETATM   32  C8  GNP A 200      -0.825  51.348  21.206  1.00 11.92     0.182 A 
ENDBRANCH   7  22
TORSDOF 8
ENDMDL
MODEL 4
REMARK VINA RESULT:    -7.216      4.996      6.963
REMARK INTER + INTRA:         -11.159
REMARK INTER:                 -10.942
REMARK INTRA:                  -0.217
REMARK UNBOUND:                -0.568
REMARK  8 active torsions:
REMARK  status: ('A' for Active; 'I' for Inactive)
REMARK    1  A    between atoms: PA_1  and  O5'_5 
REMARK    2  A    between atoms: PA_1  and  O3A_24 
REMARK    3  A    between atoms: PB_2  and  N3B_23 
REMARK    4  A    between atoms: PB_2  and  O3A_24 
REMARK    5  A    between atoms: PG_3  and  N3B_23 
REMARK    6  A    between atoms: C5'_4  and  O5'_5 
REMARK    7  A    between atoms: C5'_4  and  C4'_6 
REMARK    8  A    between atoms: C1'_12  and  N9_32 
ROOT
HETATM    1  C4' GNP A 200       2.291  49.596  17.271  1.00 11.60     0.181 C 
HETATM    2  O4' GNP A 200       0.879  49.486  16.904  1.00 10.96    -0.331 OA
HETATM    3  C3' GNP A 200       2.723  51.011  16.855  1.00 12.08     0.216 C 
HETATM    4  O3' GNP A 200       3.193  50.948  15.486  1.00 14.40    -0.218 OA
HETATM    5  C2' GNP A 200       1.379  51.803  16.914  1.00 12.17     0.234 C 
HETATM    6  O2' GNP A 200       1.269  52.914  15.981  1.00 13.60    -0.216 OA
HETATM    7  C1' GNP A 200       0.369  50.753  16.409  1.00 11.60     0.241 C 
ENDROOT
BRANCH   1   8
HETATM    8  C5' GNP A 200       2.506  49.300  18.700  1.00 10.62     0.187 C 
BRANCH   8   9
HETATM    9  O5' GNP A 200       3.231  48.063  18.889  1.00  9.72    -0.268 OA
BRANCH   9  10
HETATM   10  PA  GNP A 200       3.160  46.937  17.858  1.00 10.32     0.418 P 
HETATM   11  O1A GNP A 200       3.910  47.345  16.586  1.00  9.87    -0.624 OA
HETATM   12  O2A GNP A 200       1.745  46.412  17.726  1.00 11.09    -0.624 OA
BRANCH  10  13
HETATM   13  O3A GNP A 200       4.040  45.720  18.630  1.00  9.21    -0.185 OA
BRANCH  13  14
HETATM   14  PB  GNP A 200       4.712  44.475  17.991  1.00  8.42     0.401 P 
HETATM   15  O1B GNP A 200       4.402  43.406  18.961  1.00  8.14    -0.628 OA
HETATM   16  O2B GNP A 200       6.083  44.730  17.696  1.00  8.71    -0.628 OA
BRANCH  14  17
HETATM   17  N3B GNP A 200       3.767  44.185  16.527  1.00  9.58    -0.091 NA
BRANCH  17  18
HETATM   18  PG  GNP A 200       4.416  43.775  15.106  1.00  9.51     0.404 P 
HETATM   19  O1G GNP A 200       4.961  45.054  14.425  1.00 10.72    -0.621 OA
HETATM   20  O2G GNP A 200       3.473  43.081  14.319  1.00 10.01    -0.621 OA
HETATM   21  O3G GNP A 200       5.589  42.846  15.528  1.00 11.72    -0.621 OA
ENDBRANCH  17  18
ENDBRANCH  14  17
ENDBRANCH  13  14
ENDBRANCH  10  13
ENDBRANCH   9  10
ENDBRANCH   8   9
ENDBRANCH   1   8
BRANCH   7  22
HETATM   22  N9  GNP A 200      -1.059  50.876  16.872  1.00  9.54    -0.269 N 
HETATM   23  C4  GNP A 200      -1.494  50.697  18.095  1.00  9.54     0.187 A 
HETATM   24  N3  GNP A 200      -0.844  50.416  19.205  1.00 10.76    -0.039 NA
HETATM   25  C5  GNP A 200      -2.891  50.840  17.912  1.00  8.26     0.162 A 
HETATM   26  C2  GNP A 200      -1.466  50.294  20.265  1.00  9.86     0.772 A 
HETATM   27  N1  GNP A 200      -2.945  50.439  20.305  1.00 10.22    -0.029 NA
HETATM   28  N2  GNP A 200      -1.060  50.035  21.465  1.00 11.49     0.062 N 
HETATM   29  C6  GNP A 200      -3.560  50.693  19.154  1.00 10.19     0.251 A 
HETATM   30  O6  GNP A 200      -4.916  50.794  19.186  1.00 11.17    -0.167 OA
HETATM   31  N7  GNP A 200      -3.165  51.095  16.677  1.00  8.86    -0.219 NA
HETATM   32  C8  GNP A 200      -2.059  51.128  15.907  1.00 11.92     0.182 A 
ENDBRANCH   7  22
TORSDOF 8
ENDMDL
MODEL 5
REMARK VINA RESULT:    -7.094      3.940      8.068
REMARK INTER + INTRA:         -10.980
REMARK INTER:                  -9.984
REMARK INTRA:                  -0.996
REMARK UNBOUND:                -0.568
REMARK  8 active torsions:
REMARK  status: ('A' for Active; 'I' for Inactive)
REMARK    1  A    between atoms: PA_1  and  O5'_5 
REMARK    2  A    between atoms: PA_1  and  O3A_24 
REMARK    3  A    between atoms: PB_2  and  N3B_23 
REMARK    4  A    between atoms: PB_2  and  O3A_24 
REMARK    5  A    between atoms: PG_3  and  N3B_23 
REMARK    6  A    between atoms: C5'_4  and  O5'_5 
REMARK    7  A    between atoms: C5'_4  and  C4'_6 
REMARK    8  A    between atoms: C1'_12  and  N9_32 
ROOT
HETATM    1  C4' GNP A 200       0.654  50.928  16.324  1.00 11.60     0.181 C 
HETATM    2  O4' GNP A 200       1.119  49.615  15.878  1.00 10.96    -0.331 OA
HETATM    3  C3' GNP A 200       1.203  51.106  17.748  1.00 12.08     0.216 C 
HETATM    4  O3' GNP A 200       0.227  50.564  18.672  1.00 14.40    -0.218 OA
HETATM    5  C2' GNP A 200       2.474  50.199  17.733  1.00 12.17     0.234 C 
HETATM    6  O2' GNP A 200       2.830  49.605  19.012  1.00 13.60    -0.216 OA
HETATM    7  C1' GNP A 200       2.010  49.018  16.857  1.00 11.60     0.241 C 
ENDROOT
BRANCH   1   8
HETATM    8  C5' GNP A 200       1.058  51.994  15.389  1.00 10.62     0.187 C 
BRANCH   8   9
HETATM    9  O5' GNP A 200       1.469  51.459  14.109  1.00  9.72    -0.268 OA
BRANCH   9  10
HETATM   10  PA  GNP A 200       0.474  51.299  12.960  1.00 10.32     0.418 P 
HETATM   11  O1A GNP A 200      -0.563  52.426  13.006  1.00  9.87    -0.624 OA
HETATM   12  O2A GNP A 200      -0.016  49.869  12.865  1.00 11.09    -0.624 OA
BRANCH  10  13
HETATM   13  O3A GNP A 200       1.469  51.542  11.619  1.00  9.21    -0.185 OA
BRANCH  13  14
HETATM   14  PB  GNP A 200       1.076  51.501  10.117  1.00  8.42     0.401 P 
HETATM   15  O1B GNP A 200       1.652  52.757   9.596  1.00  8.14    -0.628 OA
HETATM   16  O2B GNP A 200      -0.326  51.296   9.962  1.00  8.71    -0.628 OA
BRANCH  14  17
HETATM   17  N3B GNP A 200       2.014  50.152   9.469  1.00  9.58    -0.091 NA
BRANCH  17  18
HETATM   18  PG  GNP A 200       2.102  49.794   7.896  1.00  9.51     0.404 P 
HETATM   19  O1G GNP A 200       2.045  48.255   7.736  1.00 10.72    -0.621 OA
HETATM   20  O2G GNP A 200       3.256  50.373   7.327  1.00 10.01    -0.621 OA
HETATM   21  O3G GNP A 200       0.810  50.444   7.330  1.00 11.72    -0.621 OA
ENDBRANCH  17  18
ENDBRANCH  14  17
ENDBRANCH  13  14
ENDBRANCH  10  13
ENDBRANCH   9  10
ENDBRANCH   8   9
ENDBRANCH   1   8
BRANCH   7  22
HETATM   22  N9  GNP A 200       3.064  48.253  16.100  1.00  9.54    -0.269 N 
HETATM   23  C4  GNP A 200       3.718  47.203  16.532  1.00  9.54     0.187 A 
HETATM   24  N3  GNP A 200       3.618  46.535  17.663  1.00 10.76    -0.039 NA
HETATM   25  C5  GNP A 200       4.622  46.984  15.465  1.00  8.26     0.162 A 
HETATM   26  C2  GNP A 200       4.344  45.555  17.861  1.00  9.86     0.772 A 
HETATM   27  N1  GNP A 200       5.346  45.128  16.850  1.00 10.22    -0.029 NA
HETATM   28  N2  GNP A 200       4.425  44.746  18.867  1.00 11.49     0.062 N 
HETATM   29  C6  GNP A 200       5.430  45.851  15.738  1.00 10.19     0.251 A 
HETATM   30  O6  GNP A 200       6.370  45.479  14.827  1.00 11.17    -0.167 OA
HETATM   31  N7  GNP A 200       4.440  47.854  14.528  1.00  8.86    -0.219 NA
HETATM   32  C8  GNP A 200       3.467  48.735  14.835  1.00 11.92     0.182 A 
ENDBRANCH   7  22
TORSDOF 8
ENDMDL
MODEL 6
REMARK VINA RESULT:    -7.087      5.598      8.352
REMARK INTER + INTRA:         -10.970
REMARK INTER:                 -10.884
REMARK INTRA:                  -0.086
REMARK UNBOUND:                -0.568
REMARK  8 active torsions:
REMARK  status: ('A' for Active; 'I' for Inactive)
REMARK    1  A    between atoms: PA_1  and  O5'_5 
REMARK    2  A    between atoms: PA_1  and  O3A_24 
REMARK    3  A    between atoms: PB_2  and  N3B_23 
REMARK    4  A    between atoms: PB_2  and  O3A_24 
REMARK    5  A    between atoms: PG_3  and  N3B_23 
REMARK    6  A    between atoms: C5'_4  and  O5'_5 
REMARK    7  A    between atoms: C5'_4  and  C4'_6 
REMARK    8  A    between atoms: C1'_12  and  N9_32 
ROOT
HETATM    1  C4' GNP A 200       1.449  49.191  18.146  1.00 11.60     0.181 C 
HETATM    2  O4' GNP A 200       2.550  48.229  18.093  1.00 10.96    -0.331 OA
HETATM    3  C3' GNP A 200       1.729  50.211  17.032  1.00 12.08     0.216 C 
HETATM    4  O3' GNP A 200       2.542  51.272  17.595  1.00 14.40    -0.218 OA
HETATM    5  C2' GNP A 200       2.577  49.379  16.020  1.00 12.17     0.234 C 
HETATM    6  O2' GNP A 200       3.544  50.139  15.244  1.00 13.60    -0.216 OA
HETATM    7  C1' GNP A 200       3.422  48.498  16.962  1.00 11.60     0.241 C 
ENDROOT
BRANCH   1   8
HETATM    8  C5' GNP A 200       0.139  48.524  18.032  1.00 10.62     0.187 C 
BRANCH   8   9
HETATM    9  O5' GNP A 200      -0.690  48.767  19.192  1.00  9.72    -0.268 OA
BRANCH   9  10
HETATM   10  PA  GNP A 200      -2.207  48.593  19.132  1.00 10.32     0.418 P 
HETATM   11  O1A GNP A 200      -2.836  49.752  18.353  1.00  9.87    -0.624 OA
HETATM   12  O2A GNP A 200      -2.767  48.252  20.498  1.00 11.09    -0.624 OA
BRANCH  10  13
HETATM   13  O3A GNP A 200      -2.348  47.188  18.206  1.00  9.21    -0.185 OA
BRANCH  13  14
HETATM   14  PB  GNP A 200      -3.646  46.450  17.781  1.00  8.42     0.401 P 
HETATM   15  O1B GNP A 200      -4.685  47.479  17.982  1.00  8.14    -0.628 OA
HETATM   16  O2B GNP A 200      -3.784  45.217  18.482  1.00  8.71    -0.628 OA
BRANCH  14  17
HETATM   17  N3B GNP A 200      -3.443  46.199  16.044  1.00  9.58    -0.091 NA
BRANCH  17  18
HETATM   18  PG  GNP A 200      -4.654  45.817  15.046  1.00  9.51     0.404 P 
HETATM   19  O1G GNP A 200      -5.460  44.652  15.671  1.00 10.72    -0.621 OA
HETATM   20  O2G GNP A 200      -4.153  45.523  13.760  1.00 10.01    -0.621 OA
HETATM   21  O3G GNP A 200      -5.505  47.117  15.035  1.00 11.72    -0.621 OA
ENDBRANCH  17  18
ENDBRANCH  14  17
ENDBRANCH  13  14
ENDBRANCH  10  13
ENDBRANCH   9  10
ENDBRANCH   8   9
ENDBRANCH   1   8
BRANCH   7  22
HETATM   22  N9  GNP A 200       3.901  47.170  16.437  1.00  9.54    -0.269 N 
HETATM   23  C4  GNP A 200       3.953  46.046  17.107  1.00  9.54     0.187 A 
HETATM   24  N3  GNP A 200       3.586  45.764  18.340  1.00 10.76    -0.039 NA
HETATM   25  C5  GNP A 200       4.565  45.190  16.160  1.00  8.26     0.162 A 
HETATM   26  C2  GNP A 200       3.723  44.615  18.772  1.00  9.86     0.772 A 
HETATM   27  N1  GNP A 200       4.317  43.545  17.927  1.00 10.22    -0.029 NA
HETATM   28  N2  GNP A 200       3.435  44.098  19.923  1.00 11.49     0.062 N 
HETATM   29  C6  GNP A 200       4.699  43.885  16.700  1.00 10.19     0.251 A 
HETATM   30  O6  GNP A 200       5.271  42.914  15.939  1.00 11.17    -0.167 OA
HETATM   31  N7  GNP A 200       4.801  45.822  15.060  1.00  8.86    -0.219 NA
HETATM   32  C8  GNP A 200       4.427  47.116  15.127  1.00 11.92     0.182 A 
ENDBRANCH   7  22
TORSDOF 8
ENDMDL
MODEL 7
REMARK VINA RESULT:    -7.080      4.232      8.110
REMARK INTER + INTRA:         -10.959
REMARK INTER:                  -9.824
REMARK INTRA:                  -1.135
REMARK UNBOUND:                -0.568
REMARK  8 active torsions:
REMARK  status: ('A' for Active; 'I' for Inactive)
REMARK    1  A    between atoms: PA_1  and  O5'_5 
REMARK    2  A    between atoms: PA_1  and  O3A_24 
REMARK    3  A    between atoms: PB_2  and  N3B_23 
REMARK    4  A    between atoms: PB_2  and  O3A_24 
REMARK    5  A    between atoms: PG_3  and  N3B_23 
REMARK    6  A    between atoms: C5'_4  and  O5'_5 
REMARK    7  A    between atoms: C5'_4  and  C4'_6 
REMARK    8  A    between atoms: C1'_12  and  N9_32 
ROOT
HETATM    1  C4' GNP A 200      -0.232  49.928  17.839  1.00 11.60     0.181 C 
HETATM    2  O4' GNP A 200       0.441  48.698  17.420  1.00 10.96    -0.331 OA
HETATM    3  C3' GNP A 200       0.613  50.497  18.990  1.00 12.08     0.216 C 
HETATM    4  O3' GNP A 200       0.117  49.929  20.228  1.00 14.40    -0.218 OA
HETATM    5  C2' GNP A 200       2.032  49.925  18.679  1.00 12.17     0.234 C 
HETATM    6  O2' GNP A 200       2.874  49.685  19.841  1.00 13.60    -0.216 OA
HETATM    7  C1' GNP A 200       1.695  48.523  18.131  1.00 11.60     0.241 C 
ENDROOT
BRANCH   1   8
HETATM    8  C5' GNP A 200      -0.412  50.860  16.711  1.00 10.62     0.187 C 
BRANCH   8   9
HETATM    9  O5' GNP A 200       0.501  50.574  15.627  1.00  9.72    -0.268 OA
BRANCH   9  10
HETATM   10  PA  GNP A 200       1.234  51.695  14.891  1.00 10.32     0.418 P 
HETATM   11  O1A GNP A 200       2.586  51.962  15.558  1.00  9.87    -0.624 OA
HETATM   12  O2A GNP A 200       0.310  52.869  14.635  1.00 11.09    -0.624 OA
BRANCH  10  13
HETATM   13  O3A GNP A 200       1.512  50.983  13.386  1.00  9.21    -0.185 OA
BRANCH  13  14
HETATM   14  PB  GNP A 200       0.766  51.250  12.050  1.00  8.42     0.401 P 
HETATM   15  O1B GNP A 200       1.367  52.519  11.592  1.00  8.14    -0.628 OA
HETATM   16  O2B GNP A 200      -0.646  51.210  12.237  1.00  8.71    -0.628 OA
BRANCH  14  17
HETATM   17  N3B GNP A 200       1.326  49.956  10.985  1.00  9.58    -0.091 NA
BRANCH  17  18
HETATM   18  PG  GNP A 200       0.621  49.582   9.581  1.00  9.51     0.404 P 
HETATM   19  O1G GNP A 200       0.243  50.896   8.852  1.00 10.72    -0.621 OA
HETATM   20  O2G GNP A 200      -0.481  48.727   9.799  1.00 10.01    -0.621 OA
HETATM   21  O3G GNP A 200       1.759  48.850   8.817  1.00 11.72    -0.621 OA
ENDBRANCH  17  18
ENDBRANCH  14  17
ENDBRANCH  13  14
ENDBRANCH  10  13
ENDBRANCH   9  10
ENDBRANCH   8   9
ENDBRANCH   1   8
BRANCH   7  22
HETATM   22  N9  GNP A 200       2.673  47.893  17.173  1.00  9.54    -0.269 N 
HETATM   23  C4  GNP A 200       3.427  46.849  17.413  1.00  9.54     0.187 A 
HETATM   24  N3  GNP A 200       3.511  46.077  18.477  1.00 10.76    -0.039 NA
HETATM   25  C5  GNP A 200       4.189  46.782  16.222  1.00  8.26     0.162 A 
HETATM   26  C2  GNP A 200       4.302  45.128  18.483  1.00  9.86     0.772 A 
HETATM   27  N1  GNP A 200       5.178  44.854  17.314  1.00 10.22    -0.029 NA
HETATM   28  N2  GNP A 200       4.556  44.237  19.386  1.00 11.49     0.062 N 
HETATM   29  C6  GNP A 200       5.079  45.679  16.276  1.00 10.19     0.251 A 
HETATM   30  O6  GNP A 200       5.904  45.448  15.219  1.00 11.17    -0.167 OA
HETATM   31  N7  GNP A 200       3.842  47.720  15.406  1.00  8.86    -0.219 NA
HETATM   32  C8  GNP A 200       2.878  48.511  15.920  1.00 11.92     0.182 A 
ENDBRANCH   7  22
TORSDOF 8
ENDMDL
MODEL 8
REMARK VINA RESULT:    -6.778      5.229      7.846
REMARK INTER + INTRA:         -10.516
REMARK INTER:                  -9.277
REMARK INTRA:                  -1.239
REMARK UNBOUND:                -0.568
REMARK  8 active torsions:
REMARK  status: ('A' for Active; 'I' for Inactive)
REMARK    1  A    between atoms: PA_1  and  O5'_5 
REMARK    2  A    between atoms: PA_1  and  O3A_24 
REMARK    3  A    between atoms: PB_2  and  N3B_23 
REMARK    4  A    between atoms: PB_2  and  O3A_24 
REMARK    5  A    between atoms: PG_3  and  N3B_23 
REMARK    6  A    between atoms: C5'_4  and  O5'_5 
REMARK    7  A    between atoms: C5'_4  and  C4'_6 
REMARK    8  A    between atoms: C1'_12  and  N9_32 
ROOT
HETATM    1  C4' GNP A 200       1.663  51.461  17.224  1.00 11.60     0.181 C 
HETATM    2  O4' GNP A 200       2.756  50.540  17.538  1.00 10.96    -0.331 OA
HETATM    3  C3' GNP A 200       1.214  51.107  15.798  1.00 12.08     0.216 C 
HETATM    4  O3' GNP A 200       2.004  51.897  14.874  1.00 14.40    -0.218 OA
HETATM    5  C2' GNP A 200       1.616  49.603  15.682  1.00 12.17     0.234 C 
HETATM    6  O2' GNP A 200       1.965  49.153  14.343  1.00 13.60    -0.216 OA
HETATM    7  C1' GNP A 200       2.939  49.567  16.475  1.00 11.60     0.241 C 
ENDROOT
BRANCH   1   8
HETATM    8  C5' GNP A 200       0.586  51.387  18.227  1.00 10.62     0.187 C 
BRANCH   8   9
HETATM    9  O5' GNP A 200      -0.628  50.829  17.673  1.00  9.72    -0.268 OA
BRANCH   9  10
HETATM   10  PA  GNP A 200      -1.431  49.771  18.428  1.00 10.32     0.418 P 
HETATM   11  O1A GNP A 200      -2.544  50.441  19.240  1.00  9.87    -0.624 OA
HETATM   12  O2A GNP A 200      -0.512  48.793  19.131  1.00 11.09    -0.624 OA
BRANCH  10  13
HETATM   13  O3A GNP A 200      -2.139  48.916  17.156  1.00  9.21    -0.185 OA
BRANCH  13  14
HETATM   14  PB  GNP A 200      -3.537  48.241  17.119  1.00  8.42     0.401 P 
HETATM   15  O1B GNP A 200      -3.425  47.326  15.967  1.00  8.14    -0.628 OA
HETATM   16  O2B GNP A 200      -4.575  49.218  17.096  1.00  8.71    -0.628 OA
BRANCH  14  17
HETATM   17  N3B GNP A 200      -3.580  47.271  18.595  1.00  9.58    -0.091 NA
BRANCH  17  18
HETATM   18  PG  GNP A 200      -4.665  46.107  18.872  1.00  9.51     0.404 P 
HETATM   19  O1G GNP A 200      -4.000  44.736  18.595  1.00 10.72    -0.621 OA
HETATM   20  O2G GNP A 200      -5.828  46.329  18.104  1.00 10.01    -0.621 OA
HETATM   21  O3G GNP A 200      -4.953  46.270  20.390  1.00 11.72    -0.621 OA
ENDBRANCH  17  18
ENDBRANCH  14  17
ENDBRANCH  13  14
ENDBRANCH  10  13
ENDBRANCH   9  10
ENDBRANCH   8   9
ENDBRANCH   1   8
BRANCH   7  22
HETATM   22  N9  GNP A 200       3.333  48.263  17.119  1.00  9.54    -0.269 N 
HETATM   23  C4  GNP A 200       3.999  47.290  16.549  1.00  9.54     0.187 A 
HETATM   24  N3  GNP A 200       4.517  47.195  15.342  1.00 10.76    -0.039 NA
HETATM   25  C5  GNP A 200       3.984  46.312  17.573  1.00  8.26     0.162 A 
HETATM   26  C2  GNP A 200       5.119  46.168  15.013  1.00  9.86     0.772 A 
HETATM   27  N1  GNP A 200       5.252  45.024  15.954  1.00 10.22    -0.029 NA
HETATM   28  N2  GNP A 200       5.713  45.846  13.910  1.00 11.49     0.062 N 
HETATM   29  C6  GNP A 200       4.687  45.155  17.150  1.00 10.19     0.251 A 
HETATM   30  O6  GNP A 200       4.782  44.097  17.999  1.00 11.17    -0.167 OA
HETATM   31  N7  GNP A 200       3.365  46.754  18.616  1.00  8.86    -0.219 NA
HETATM   32  C8  GNP A 200       2.887  48.002  18.433  1.00 11.92     0.182 A 
ENDBRANCH   7  22
TORSDOF 8
ENDMDL
MODEL 9
REMARK VINA RESULT:    -6.775      5.304      8.275
REMARK INTER + INTRA:         -10.512
REMARK INTER:                  -9.716
REMARK INTRA:                  -0.796
REMARK UNBOUND:                -0.568
REMARK  8 active torsions:
REMARK  status: ('A' for Active; 'I' for Inactive)
REMARK    1  A    between atoms: PA_1  and  O5'_5 
REMARK    2  A    between atoms: PA_1  and  O3A_24 
REMARK    3  A    between atoms: PB_2  and  N3B_23 
REMARK    4  A    between atoms: PB_2  and  O3A_24 
REMARK    5  A    between atoms: PG_3  and  N3B_23 
REMARK    6  A    between atoms: C5'_4  and  O5'_5 
REMARK    7  A    between atoms: C5'_4  and  C4'_6 
REMARK    8  A    between atoms: C1'_12  and  N9_32 
ROOT
HETATM    1  C4' GNP A 200       1.830  50.333  17.267  1.00 11.60     0.181 C 
HETATM    2  O4' GNP A 200       2.720  49.234  17.639  1.00 10.96    -0.331 OA
HETATM    3  C3' GNP A 200       2.029  50.542  15.758  1.00 12.08     0.216 C 
HETATM    4  O3' GNP A 200       3.106  51.495  15.579  1.00 14.40    -0.218 OA
HETATM    5  C2' GNP A 200       2.490  49.129  15.282  1.00 12.17     0.234 C 
HETATM    6  O2' GNP A 200       3.380  49.119  14.131  1.00 13.60    -0.216 OA
HETATM    7  C1' GNP A 200       3.361  48.664  16.467  1.00 11.60     0.241 C 
ENDROOT
BRANCH   1   8
HETATM    8  C5' GNP A 200       0.434  50.057  17.656  1.00 10.62     0.187 C 
BRANCH   8   9
HETATM    9  O5' GNP A 200       0.345  49.528  18.998  1.00  9.72    -0.268 OA
BRANCH   9  10
HETATM   10  PA  GNP A 200      -0.256  50.350  20.137  1.00 10.32     0.418 P 
HETATM   11  O1A GNP A 200      -1.214  49.483  20.959  1.00  9.87    -0.624 OA
HETATM   12  O2A GNP A 200      -0.747  51.693  19.634  1.00 11.09    -0.624 OA
BRANCH  10  13
HETATM   13  O3A GNP A 200       1.110  50.673  21.075  1.00  9.21    -0.185 OA
BRANCH  13  14
HETATM   14  PB  GNP A 200       1.310  51.812  22.112  1.00  8.42     0.401 P 
HETATM   15  O1B GNP A 200      -0.074  52.119  22.527  1.00  8.14    -0.628 OA
HETATM   16  O2B GNP A 200       2.091  52.870  21.564  1.00  8.71    -0.628 OA
BRANCH  14  17
HETATM   17  N3B GNP A 200       2.130  51.019  23.461  1.00  9.58    -0.091 NA
BRANCH  17  18
HETATM   18  PG  GNP A 200       1.371  50.481  24.781  1.00  9.51     0.404 P 
HETATM   19  O1G GNP A 200       0.685  51.681  25.480  1.00 10.72    -0.621 OA
HETATM   20  O2G GNP A 200       2.273  49.788  25.616  1.00 10.01    -0.621 OA
HETATM   21  O3G GNP A 200       0.303  49.521  24.188  1.00 11.72    -0.621 OA
ENDBRANCH  17  18
ENDBRANCH  14  17
ENDBRANCH  13  14
ENDBRANCH  10  13
ENDBRANCH   9  10
ENDBRANCH   8   9
ENDBRANCH   1   8
BRANCH   7  22
HETATM   22  N9  GNP A 200       3.491  47.181  16.699  1.00  9.54    -0.269 N 
HETATM   23  C4  GNP A 200       4.223  46.350  15.999  1.00  9.54     0.187 A 
HETATM   24  N3  GNP A 200       5.032  46.564  14.983  1.00 10.76    -0.039 NA
HETATM   25  C5  GNP A 200       3.879  45.113  16.597  1.00  8.26     0.162 A 
HETATM   26  C2  GNP A 200       5.635  45.616  14.470  1.00  9.86     0.772 A 
HETATM   27  N1  GNP A 200       5.446  44.229  14.968  1.00 10.22    -0.029 NA
HETATM   28  N2  GNP A 200       6.476  45.575  13.488  1.00 11.49     0.062 N 
HETATM   29  C6  GNP A 200       4.596  44.058  15.976  1.00 10.19     0.251 A 
HETATM   30  O6  GNP A 200       4.399  42.785  16.411  1.00 11.17    -0.167 OA
HETATM   31  N7  GNP A 200       3.037  45.290  17.558  1.00  8.86    -0.219 NA
HETATM   32  C8  GNP A 200       2.701  46.587  17.708  1.00 11.92     0.182 A 
ENDBRANCH   7  22
TORSDOF 8
ENDMDL
