MODEL 1
REMARK VINA RESULT:    -9.164      0.000      0.000
REMARK INTER + INTRA:         -14.316
REMARK INTER:                 -13.450
REMARK INTRA:                  -0.866
REMARK UNBOUND:                -0.866
REMARK  8 active torsions:
REMARK  status: ('A' for Active; 'I' for Inactive)
REMARK    1  A    between atoms: PA_1  and  O5'_5 
REMARK    2  A    between atoms: PA_1  and  O3A_24 
REMARK    3  A    between atoms: PB_2  and  N3B_23 
REMARK    4  A    between atoms: PB_2  and  O3A_24 
REMARK    5  A    between atoms: PG_3  and  N3B_23 
REMARK    6  A    between atoms: C5'_4  and  O5'_5 
REMARK    7  A    between atoms: C5'_4  and  C4'_6 
REMARK    8  A    between atoms: C1'_12  and  N9_32 
ROOT
HETATM    1  C4' GNP A 200       2.860  47.004  17.262  1.00 11.60     0.181 C 
HETATM    2  O4' GNP A 200       1.593  47.491  17.808  1.00 10.96    -0.331 OA
HETATM    3  C3' GNP A 200       3.503  48.208  16.556  1.00 12.08     0.216 C 
HETATM    4  O3' GNP A 200       3.038  48.218  15.183  1.00 14.40    -0.218 OA
HETATM    5  C2' GNP A 200       2.890  49.418  17.329  1.00 12.17     0.234 C 
HETATM    6  O2' GNP A 200       2.727  50.636  16.551  1.00 13.60    -0.216 OA
HETATM    7  C1' GNP A 200       1.455  48.923  17.605  1.00 11.60     0.241 C 
ENDROOT
BRANCH   1   8
HETATM    8  C5' GNP A 200       3.706  46.401  18.309  1.00 10.62     0.187 C 
BRANCH   8   9
HETATM    9  O5' GNP A 200       4.328  45.176  17.857  1.00  9.72    -0.268 OA
BRANCH   9  10
HETATM   10  PA  GNP A 200       3.564  43.853  17.856  1.00 10.32     0.418 P 
HETATM   11  O1A GNP A 200       2.208  44.032  18.547  1.00  9.87    -0.624 OA
HETATM   12  O2A GNP A 200       4.456  42.712  18.300  1.00 11.09    -0.624 OA
BRANCH  10  13
HETATM   13  O3A GNP A 200       3.295  43.622  16.205  1.00  9.21    -0.185 OA
BRANCH  13  14
HETATM   14  PB  GNP A 200       4.350  43.530  15.069  1.00  8.42     0.401 P 
HETATM   15  O1B GNP A 200       3.619  42.813  14.006  1.00  8.14    -0.628 OA
HETATM   16  O2B GNP A 200       5.565  42.956  15.546  1.00  8.71    -0.628 OA
BRANCH  14  17
HETATM   17  N3B GNP A 200       4.571  45.206  14.557  1.00  9.58    -0.091 NA
BRANCH  17  18
HETATM   18  PG  GNP A 200       6.015  45.886  14.313  1.00  9.51     0.404 P 
HETATM   19  O1G GNP A 200       6.777  45.060  13.247  1.00 10.72    -0.621 OA
HETATM   20  O2G GNP A 200       6.713  46.004  15.533  1.00 10.01    -0.621 OA
HETATM   21  O3G GNP A 200       5.637  47.282  13.745  1.00 11.72    -0.621 OA
ENDBRANCH  17  18
ENDBRANCH  14  17
ENDBRANCH  13  14
ENDBRANCH  10  13
ENDBRANCH   9  10
ENDBRANCH   8   9
ENDBRANCH   1   8
BRANCH   7  22
HETATM   22  N9  GNP A 200       0.741  49.483  18.808  1.00  9.54    -0.269 N 
HETATM   23  C4  GNP A 200       1.304  50.045  19.848  1.00  9.54     0.187 A 
HETATM   24  N3  GNP A 200       2.570  50.302  20.106  1.00 10.76    -0.039 NA
HETATM   25  C5  GNP A 200       0.179  50.274  20.678  1.00  8.26     0.162 A 
HETATM   26  C2  GNP A 200       2.879  50.854  21.167  1.00  9.86     0.772 A 
HETATM   27  N1  GNP A 200       1.844  51.215  22.172  1.00 10.22    -0.029 NA
HETATM   28  N2  GNP A 200       4.030  51.213  21.636  1.00 11.49     0.062 N 
HETATM   29  C6  GNP A 200       0.584  50.908  21.880  1.00 10.19     0.251 A 
HETATM   30  O6  GNP A 200      -0.358  51.210  22.813  1.00 11.17    -0.167 OA
HETATM   31  N7  GNP A 200      -0.902  49.873  20.099  1.00  8.86    -0.219 NA
HETATM   32  C8  GNP A 200      -0.661  49.330  18.889  1.00 11.92     0.182 A 
ENDBRANCH   7  22
TORSDOF 8
ENDMDL
MODEL 2
REMARK VINA RESULT:    -9.088      1.332      2.811
REMARK INTER + INTRA:         -14.205
REMARK INTER:                 -13.183
REMARK INTRA:                  -1.021
REMARK UNBOUND:                -0.866
REMARK  8 active torsions:
REMARK  status: ('A' for Active; 'I' for Inactive)
REMARK    1  A    between atoms: PA_1  and  O5'_5 
REMARK    2  A    between atoms: PA_1  and  O3A_24 
REMARK    3  A    between atoms: PB_2  and  N3B_23 
REMARK    4  A    between atoms: PB_2  and  O3A_24 
REMARK    5  A    between atoms: PG_3  and  N3B_23 
REMARK    6  A    between atoms: C5'_4  and  O5'_5 
REMARK    7  A    between atoms: C5'_4  and  C4'_6 
REMARK    8  A    between atoms: C1'_12  and  N9_32 
ROOT
HETATM    1  C4' GNP A 200       2.773  46.743  17.458  1.00 11.60     0.181 C 
HETATM    2  O4' GNP A 200       1.492  47.329  17.851  1.00 10.96    -0.331 OA
HETATM    3  C3' GNP A 200       3.570  47.879  16.798  1.00 12.08     0.216 C 
HETATM    4  O3' GNP A 200       3.256  47.878  15.383  1.00 14.40    -0.218 OA
HETATM    5  C2' GNP A 200       2.963  49.150  17.471  1.00 12.17     0.234 C 
HETATM    6  O2' GNP A 200       2.969  50.352  16.652  1.00 13.60    -0.216 OA
HETATM    7  C1' GNP A 200       1.476  48.760  17.601  1.00 11.60     0.241 C 
ENDROOT
BRANCH   1   8
HETATM    8  C5' GNP A 200       3.459  46.118  18.604  1.00 10.62     0.187 C 
BRANCH   8   9
HETATM    9  O5' GNP A 200       3.359  44.675  18.568  1.00  9.72    -0.268 OA
BRANCH   9  10
HETATM   10  PA  GNP A 200       4.357  43.831  17.776  1.00 10.32     0.418 P 
HETATM   11  O1A GNP A 200       4.101  42.343  18.033  1.00  9.87    -0.624 OA
HETATM   12  O2A GNP A 200       5.766  44.362  17.940  1.00 11.09    -0.624 OA
BRANCH  10  13
HETATM   13  O3A GNP A 200       3.907  44.184  16.187  1.00  9.21    -0.185 OA
BRANCH  13  14
HETATM   14  PB  GNP A 200       4.585  43.708  14.874  1.00  8.42     0.401 P 
HETATM   15  O1B GNP A 200       3.487  43.011  14.176  1.00  8.14    -0.628 OA
HETATM   16  O2B GNP A 200       5.773  42.971  15.151  1.00  8.71    -0.628 OA
BRANCH  14  17
HETATM   17  N3B GNP A 200       4.929  45.208  14.006  1.00  9.58    -0.091 NA
BRANCH  17  18
HETATM   18  PG  GNP A 200       6.343  45.984  14.082  1.00  9.51     0.404 P 
HETATM   19  O1G GNP A 200       6.771  46.086  15.567  1.00 10.72    -0.621 OA
HETATM   20  O2G GNP A 200       6.249  47.237  13.441  1.00 10.01    -0.621 OA
HETATM   21  O3G GNP A 200       7.295  45.028  13.311  1.00 11.72    -0.621 OA
ENDBRANCH  17  18
ENDBRANCH  14  17
ENDBRANCH  13  14
ENDBRANCH  10  13
ENDBRANCH   9  10
ENDBRANCH   8   9
ENDBRANCH   1   8
BRANCH   7  22
HETATM   22  N9  GNP A 200       0.678  49.403  18.706  1.00  9.54    -0.269 N 
HETATM   23  C4  GNP A 200      -0.628  49.470  18.777  1.00  9.54     0.187 A 
HETATM   24  N3  GNP A 200      -1.558  48.992  17.977  1.00 10.76    -0.039 NA
HETATM   25  C5  GNP A 200      -0.798  50.254  19.945  1.00  8.26     0.162 A 
HETATM   26  C2  GNP A 200      -2.750  49.173  18.246  1.00  9.86     0.772 A 
HETATM   27  N1  GNP A 200      -3.153  49.944  19.452  1.00 10.22    -0.029 NA
HETATM   28  N2  GNP A 200      -3.827  48.801  17.634  1.00 11.49     0.062 N 
HETATM   29  C6  GNP A 200      -2.179  50.433  20.213  1.00 10.19     0.251 A 
HETATM   30  O6  GNP A 200      -2.548  51.164  21.298  1.00 11.17    -0.167 OA
HETATM   31  N7  GNP A 200       0.346  50.559  20.459  1.00  8.86    -0.219 NA
HETATM   32  C8  GNP A 200       1.375  50.075  19.734  1.00 11.92     0.182 A 
ENDBRANCH   7  22
TORSDOF 8
ENDMDL
MODEL 3
REMARK VINA RESULT:    -8.591      1.217      2.248
REMARK INTER + INTRA:         -13.474
REMARK INTER:                 -12.499
REMARK INTRA:                  -0.976
REMARK UNBOUND:                -0.866
REMARK  8 active torsions:
REMARK  status: ('A' for Active; 'I' for Inactive)
REMARK    1  A    between atoms: PA_1  and  O5'_5 
REMARK    2  A    between atoms: PA_1  and  O3A_24 
REMARK    3  A    between atoms: PB_2  and  N3B_23 
REMARK    4  A    between atoms: PB_2  and  O3A_24 
REMARK    5  A    between atoms: PG_3  and  N3B_23 
REMARK    6  A    between atoms: C5'_4  and  O5'_5 
REMARK    7  A    between atoms: C5'_4  and  C4'_6 
REMARK    8  A    between atoms: C1'_12  and  N9_32 
ROOT
HETATM    1  C4' GNP A 200       1.875  47.877  17.521  1.00 11.60     0.181 C 
HETATM    2  O4' GNP A 200       1.148  48.551  18.597  1.00 10.96    -0.331 OA
HETATM    3  C3' GNP A 200       2.574  48.990  16.726  1.00 12.08     0.216 C 
HETATM    4  O3' GNP A 200       1.664  49.435  15.689  1.00 14.40    -0.218 OA
HETATM    5  C2' GNP A 200       2.742  50.113  17.797  1.00 12.17     0.234 C 
HETATM    6  O2' GNP A 200       2.724  51.473  17.281  1.00 13.60    -0.216 OA
HETATM    7  C1' GNP A 200       1.438  49.974  18.609  1.00 11.60     0.241 C 
ENDROOT
BRANCH   1   8
HETATM    8  C5' GNP A 200       2.792  46.848  18.046  1.00 10.62     0.187 C 
BRANCH   8   9
HETATM    9  O5' GNP A 200       2.478  45.534  17.529  1.00  9.72    -0.268 OA
BRANCH   9  10
HETATM   10  PA  GNP A 200       3.324  44.316  17.895  1.00 10.32     0.418 P 
HETATM   11  O1A GNP A 200       2.583  43.455  18.922  1.00  9.87    -0.624 OA
HETATM   12  O2A GNP A 200       4.755  44.719  18.188  1.00 11.09    -0.624 OA
BRANCH  10  13
HETATM   13  O3A GNP A 200       3.364  43.482  16.428  1.00  9.21    -0.185 OA
BRANCH  13  14
HETATM   14  PB  GNP A 200       4.365  43.659  15.255  1.00  8.42     0.401 P 
HETATM   15  O1B GNP A 200       3.594  43.173  14.094  1.00  8.14    -0.628 OA
HETATM   16  O2B GNP A 200       5.607  43.023  15.543  1.00  8.71    -0.628 OA
BRANCH  14  17
HETATM   17  N3B GNP A 200       4.542  45.411  15.107  1.00  9.58    -0.091 NA
BRANCH  17  18
HETATM   18  PG  GNP A 200       5.817  46.130  14.425  1.00  9.51     0.404 P 
HETATM   19  O1G GNP A 200       6.009  45.549  13.002  1.00 10.72    -0.621 OA
HETATM   20  O2G GNP A 200       6.956  45.987  15.245  1.00 10.01    -0.621 OA
HETATM   21  O3G GNP A 200       5.364  47.614  14.345  1.00 11.72    -0.621 OA
ENDBRANCH  17  18
ENDBRANCH  14  17
ENDBRANCH  13  14
ENDBRANCH  10  13
ENDBRANCH   9  10
ENDBRANCH   8   9
ENDBRANCH   1   8
BRANCH   7  22
HETATM   22  N9  GNP A 200       1.459  50.419  20.048  1.00  9.54    -0.269 N 
HETATM   23  C4  GNP A 200       0.414  50.705  20.784  1.00  9.54     0.187 A 
HETATM   24  N3  GNP A 200      -0.873  50.650  20.508  1.00 10.76    -0.039 NA
HETATM   25  C5  GNP A 200       1.033  51.148  21.978  1.00  8.26     0.162 A 
HETATM   26  C2  GNP A 200      -1.698  50.966  21.371  1.00  9.86     0.772 A 
HETATM   27  N1  GNP A 200      -1.262  51.430  22.714  1.00 10.22    -0.029 NA
HETATM   28  N2  GNP A 200      -2.991  50.985  21.344  1.00 11.49     0.062 N 
HETATM   29  C6  GNP A 200       0.047  51.498  22.936  1.00 10.19     0.251 A 
HETATM   30  O6  GNP A 200       0.446  51.953  24.154  1.00 11.17    -0.167 OA
HETATM   31  N7  GNP A 200       2.318  51.081  21.877  1.00  8.86    -0.219 NA
HETATM   32  C8  GNP A 200       2.711  50.636  20.666  1.00 11.92     0.182 A 
ENDBRANCH   7  22
TORSDOF 8
ENDMDL
MODEL 4
REMARK VINA RESULT:    -7.854      4.768      7.236
REMARK INTER + INTRA:         -12.392
REMARK INTER:                 -12.075
REMARK INTRA:                  -0.317
REMARK UNBOUND:                -0.866
REMARK  8 active torsions:
REMARK  status: ('A' for Active; 'I' for Inactive)
REMARK    1  A    between atoms: PA_1  and  O5'_5 
REMARK    2  A    between atoms: PA_1  and  O3A_24 
REMARK    3  A    between atoms: PB_2  and  N3B_23 
REMARK    4  A    between atoms: PB_2  and  O3A_24 
REMARK    5  A    between atoms: PG_3  and  N3B_23 
REMARK    6  A    between atoms: C5'_4  and  O5'_5 
REMARK    7  A    between atoms: C5'_4  and  C4'_6 
REMARK    8  A    between atoms: C1'_12  and  N9_32 
ROOT
HETATM    1  C4' GNP A 200       3.346  43.639  19.437  1.00 11.60     0.181 C 
HETATM    2  O4' GNP A 200       2.663  44.605  18.575  1.00 10.96    -0.331 OA
HETATM    3  C3' GNP A 200       4.548  43.130  18.626  1.00 12.08     0.216 C 
HETATM    4  O3' GNP A 200       4.113  41.980  17.860  1.00 14.40    -0.218 OA
HETATM    5  C2' GNP A 200       4.835  44.326  17.665  1.00 12.17     0.234 C 
HETATM    6  O2' GNP A 200       5.403  43.965  16.375  1.00 13.60    -0.216 OA
HETATM    7  C1' GNP A 200       3.411  44.828  17.350  1.00 11.60     0.241 C 
ENDROOT
BRANCH   1   8
HETATM    8  C5' GNP A 200       3.707  44.232  20.738  1.00 10.62     0.187 C 
BRANCH   8   9
HETATM    9  O5' GNP A 200       5.139  44.371  20.885  1.00  9.72    -0.268 OA
BRANCH   9  10
HETATM   10  PA  GNP A 200       5.877  43.758  22.074  1.00 10.32     0.418 P 
HETATM   11  O1A GNP A 200       6.312  42.328  21.738  1.00  9.87    -0.624 OA
HETATM   12  O2A GNP A 200       5.120  43.999  23.364  1.00 11.09    -0.624 OA
BRANCH  10  13
HETATM   13  O3A GNP A 200       7.255  44.731  22.152  1.00  9.21    -0.185 OA
BRANCH  13  14
HETATM   14  PB  GNP A 200       8.512  44.538  23.042  1.00  8.42     0.401 P 
HETATM   15  O1B GNP A 200       8.060  43.537  24.029  1.00  8.14    -0.628 OA
HETATM   16  O2B GNP A 200       8.988  45.789  23.531  1.00  8.71    -0.628 OA
BRANCH  14  17
HETATM   17  N3B GNP A 200       9.681  43.765  21.966  1.00  9.58    -0.091 NA
BRANCH  17  18
HETATM   18  PG  GNP A 200      11.217  43.473  22.370  1.00  9.51     0.404 P 
HETATM   19  O1G GNP A 200      11.785  42.399  21.411  1.00 10.72    -0.621 OA
HETATM   20  O2G GNP A 200      11.304  43.110  23.731  1.00 10.01    -0.621 OA
HETATM   21  O3G GNP A 200      11.899  44.845  22.110  1.00 11.72    -0.621 OA
ENDBRANCH  17  18
ENDBRANCH  14  17
ENDBRANCH  13  14
ENDBRANCH  10  13
ENDBRANCH   9  10
ENDBRANCH   8   9
ENDBRANCH   1   8
BRANCH   7  22
HETATM   22  N9  GNP A 200       3.247  46.279  16.978  1.00  9.54    -0.269 N 
HETATM   23  C4  GNP A 200       3.865  46.903  16.007  1.00  9.54     0.187 A 
HETATM   24  N3  GNP A 200       4.721  46.460  15.109  1.00 10.76    -0.039 NA
HETATM   25  C5  GNP A 200       3.405  48.229  16.197  1.00  8.26     0.162 A 
HETATM   26  C2  GNP A 200       5.183  47.238  14.268  1.00  9.86     0.772 A 
HETATM   27  N1  GNP A 200       4.804  48.675  14.265  1.00 10.22    -0.029 NA
HETATM   28  N2  GNP A 200       6.014  47.044  13.296  1.00 11.49     0.062 N 
HETATM   29  C6  GNP A 200       3.960  49.081  15.209  1.00 10.19     0.251 A 
HETATM   30  O6  GNP A 200       3.639  50.403  15.225  1.00 11.17    -0.167 OA
HETATM   31  N7  GNP A 200       2.586  48.289  17.192  1.00  8.86    -0.219 NA
HETATM   32  C8  GNP A 200       2.417  47.089  17.785  1.00 11.92     0.182 A 
ENDBRANCH   7  22
TORSDOF 8
ENDMDL
MODEL 5
REMARK VINA RESULT:    -7.674      5.000      7.571
REMARK INTER + INTRA:         -12.129
REMARK INTER:                 -11.515
REMARK INTRA:                  -0.615
REMARK UNBOUND:                -0.866
REMARK  8 active torsions:
REMARK  status: ('A' for Active; 'I' for Inactive)
REMARK    1  A    between atoms: PA_1  and  O5'_5 
REMARK    2  A    between atoms: PA_1  and  O3A_24 
REMARK    3  A    between atoms: PB_2  and  N3B_23 
REMARK    4  A    between atoms: PB_2  and  O3A_24 
REMARK    5  A    between atoms: PG_3  and  N3B_23 
REMARK    6  A    between atoms: C5'_4  and  O5'_5 
REMARK    7  A    between atoms: C5'_4  and  C4'_6 
REMARK    8  A    between atoms: C1'_12  and  N9_32 
ROOT
HETATM    1  C4' GNP A 200       4.138  43.814  19.312  1.00 11.60     0.181 C 
HETATM    2  O4' GNP A 200       3.585  45.069  18.803  1.00 10.96    -0.331 OA
HETATM    3  C3' GNP A 200       4.072  42.821  18.141  1.00 12.08     0.216 C 
HETATM    4  O3' GNP A 200       2.786  42.154  18.196  1.00 14.40    -0.218 OA
HETATM    5  C2' GNP A 200       4.124  43.764  16.898  1.00 12.17     0.234 C 
HETATM    6  O2' GNP A 200       3.427  43.277  15.718  1.00 13.60    -0.216 OA
HETATM    7  C1' GNP A 200       3.297  44.972  17.382  1.00 11.60     0.241 C 
ENDROOT
BRANCH   1   8
HETATM    8  C5' GNP A 200       5.492  44.000  19.864  1.00 10.62     0.187 C 
BRANCH   8   9
HETATM    9  O5' GNP A 200       5.460  44.633  21.164  1.00  9.72    -0.268 OA
BRANCH   9  10
HETATM   10  PA  GNP A 200       5.954  43.904  22.413  1.00 10.32     0.418 P 
HETATM   11  O1A GNP A 200       6.578  42.561  22.021  1.00  9.87    -0.624 OA
HETATM   12  O2A GNP A 200       4.902  43.923  23.503  1.00 11.09    -0.624 OA
BRANCH  10  13
HETATM   13  O3A GNP A 200       7.187  44.932  22.936  1.00  9.21    -0.185 OA
BRANCH  13  14
HETATM   14  PB  GNP A 200       8.578  44.544  23.505  1.00  8.42     0.401 P 
HETATM   15  O1B GNP A 200       9.107  45.839  23.979  1.00  8.14    -0.628 OA
HETATM   16  O2B GNP A 200       9.342  43.826  22.540  1.00  8.71    -0.628 OA
BRANCH  14  17
HETATM   17  N3B GNP A 200       8.199  43.551  24.916  1.00  9.58    -0.091 NA
BRANCH  17  18
HETATM   18  PG  GNP A 200       7.781  44.157  26.354  1.00  9.51     0.404 P 
HETATM   19  O1G GNP A 200       6.324  44.672  26.268  1.00 10.72    -0.621 OA
HETATM   20  O2G GNP A 200       8.703  45.148  26.753  1.00 10.01    -0.621 OA
HETATM   21  O3G GNP A 200       7.860  42.911  27.279  1.00 11.72    -0.621 OA
ENDBRANCH  17  18
ENDBRANCH  14  17
ENDBRANCH  13  14
ENDBRANCH  10  13
ENDBRANCH   9  10
ENDBRANCH   8   9
ENDBRANCH   1   8
BRANCH   7  22
HETATM   22  N9  GNP A 200       3.596  46.316  16.769  1.00  9.54    -0.269 N 
HETATM   23  C4  GNP A 200       2.945  47.430  16.993  1.00  9.54     0.187 A 
HETATM   24  N3  GNP A 200       1.934  47.688  17.797  1.00 10.76    -0.039 NA
HETATM   25  C5  GNP A 200       3.590  48.310  16.090  1.00  8.26     0.162 A 
HETATM   26  C2  GNP A 200       1.473  48.832  17.853  1.00  9.86     0.772 A 
HETATM   27  N1  GNP A 200       2.028  49.923  17.010  1.00 10.22    -0.029 NA
HETATM   28  N2  GNP A 200       0.509  49.327  18.559  1.00 11.49     0.062 N 
HETATM   29  C6  GNP A 200       3.028  49.608  16.193  1.00 10.19     0.251 A 
HETATM   30  O6  GNP A 200       3.514  50.599  15.398  1.00 11.17    -0.167 OA
HETATM   31  N7  GNP A 200       4.528  47.698  15.449  1.00  8.86    -0.219 NA
HETATM   32  C8  GNP A 200       4.616  46.397  15.796  1.00 11.92     0.182 A 
ENDBRANCH   7  22
TORSDOF 8
ENDMDL
MODEL 6
REMARK VINA RESULT:    -7.600      4.884      7.586
REMARK INTER + INTRA:         -12.021
REMARK INTER:                 -11.641
REMARK INTRA:                  -0.380
REMARK UNBOUND:                -0.866
REMARK  8 active torsions:
REMARK  status: ('A' for Active; 'I' for Inactive)
REMARK    1  A    between atoms: PA_1  and  O5'_5 
REMARK    2  A    between atoms: PA_1  and  O3A_24 
REMARK    3  A    between atoms: PB_2  and  N3B_23 
REMARK    4  A    between atoms: PB_2  and  O3A_24 
REMARK    5  A    between atoms: PG_3  and  N3B_23 
REMARK    6  A    between atoms: C5'_4  and  O5'_5 
REMARK    7  A    between atoms: C5'_4  and  C4'_6 
REMARK    8  A    between atoms: C1'_12  and  N9_32 
ROOT
HETATM    1  C4' GNP A 200       3.270  43.740  19.210  1.00 11.60     0.181 C 
HETATM    2  O4' GNP A 200       2.579  44.753  18.412  1.00 10.96    -0.331 OA
HETATM    3  C3' GNP A 200       4.549  43.394  18.432  1.00 12.08     0.216 C 
HETATM    4  O3' GNP A 200       4.237  42.312  17.520  1.00 14.40    -0.218 OA
HETATM    5  C2' GNP A 200       4.814  44.703  17.624  1.00 12.17     0.234 C 
HETATM    6  O2' GNP A 200       5.481  44.521  16.344  1.00 13.60    -0.216 OA
HETATM    7  C1' GNP A 200       3.382  45.153  17.270  1.00 11.60     0.241 C 
ENDROOT
BRANCH   1   8
HETATM    8  C5' GNP A 200       3.513  44.205  20.587  1.00 10.62     0.187 C 
BRANCH   8   9
HETATM    9  O5' GNP A 200       4.923  44.393  20.850  1.00  9.72    -0.268 OA
BRANCH   9  10
HETATM   10  PA  GNP A 200       5.608  43.704  22.030  1.00 10.32     0.418 P 
HETATM   11  O1A GNP A 200       6.140  42.335  21.598  1.00  9.87    -0.624 OA
HETATM   12  O2A GNP A 200       4.751  43.787  23.277  1.00 11.09    -0.624 OA
BRANCH  10  13
HETATM   13  O3A GNP A 200       6.923  44.728  22.298  1.00  9.21    -0.185 OA
BRANCH  13  14
HETATM   14  PB  GNP A 200       8.148  44.489  23.223  1.00  8.42     0.401 P 
HETATM   15  O1B GNP A 200       8.974  45.689  22.983  1.00  8.14    -0.628 OA
HETATM   16  O2B GNP A 200       8.734  43.215  22.973  1.00  8.71    -0.628 OA
BRANCH  14  17
HETATM   17  N3B GNP A 200       7.477  44.596  24.853  1.00  9.58    -0.091 NA
BRANCH  17  18
HETATM   18  PG  GNP A 200       8.341  44.354  26.196  1.00  9.51     0.404 P 
HETATM   19  O1G GNP A 200       8.502  45.707  26.931  1.00 10.72    -0.621 OA
HETATM   20  O2G GNP A 200       9.571  43.738  25.882  1.00 10.01    -0.621 OA
HETATM   21  O3G GNP A 200       7.428  43.400  27.016  1.00 11.72    -0.621 OA
ENDBRANCH  17  18
ENDBRANCH  14  17
ENDBRANCH  13  14
ENDBRANCH  10  13
ENDBRANCH   9  10
ENDBRANCH   8   9
ENDBRANCH   1   8
BRANCH   7  22
HETATM   22  N9  GNP A 200       3.146  46.624  17.045  1.00  9.54    -0.269 N 
HETATM   23  C4  GNP A 200       3.660  47.351  16.084  1.00  9.54     0.187 A 
HETATM   24  N3  GNP A 200       4.445  47.018  15.081  1.00 10.76    -0.039 NA
HETATM   25  C5  GNP A 200       3.181  48.638  16.429  1.00  8.26     0.162 A 
HETATM   26  C2  GNP A 200       4.810  47.881  14.276  1.00  9.86     0.772 A 
HETATM   27  N1  GNP A 200       4.393  49.299  14.433  1.00 10.22    -0.029 NA
HETATM   28  N2  GNP A 200       5.558  47.801  13.224  1.00 11.49     0.062 N 
HETATM   29  C6  GNP A 200       3.624  49.592  15.478  1.00 10.19     0.251 A 
HETATM   30  O6  GNP A 200       3.269  50.895  15.639  1.00 11.17    -0.167 OA
HETATM   31  N7  GNP A 200       2.451  48.583  17.492  1.00  8.86    -0.219 NA
HETATM   32  C8  GNP A 200       2.369  47.332  17.988  1.00 11.92     0.182 A 
ENDBRANCH   7  22
TORSDOF 8
ENDMDL
MODEL 7
REMARK VINA RESULT:    -7.408      4.126      6.439
REMARK INTER + INTRA:         -11.738
REMARK INTER:                 -11.161
REMARK INTRA:                  -0.578
REMARK UNBOUND:                -0.866
REMARK  8 active torsions:
REMARK  status: ('A' for Active; 'I' for Inactive)
REMARK    1  A    between atoms: PA_1  and  O5'_5 
REMARK    2  A    between atoms: PA_1  and  O3A_24 
REMARK    3  A    between atoms: PB_2  and  N3B_23 
REMARK    4  A    between atoms: PB_2  and  O3A_24 
REMARK    5  A    between atoms: PG_3  and  N3B_23 
REMARK    6  A    between atoms: C5'_4  and  O5'_5 
REMARK    7  A    between atoms: C5'_4  and  C4'_6 
REMARK    8  A    between atoms: C1'_12  and  N9_32 
ROOT
HETATM    1  C4' GNP A 200       2.929  50.699  16.307  1.00 11.60     0.181 C 
HETATM    2  O4' GNP A 200       2.400  50.219  15.030  1.00 10.96    -0.331 OA
HETATM    3  C3' GNP A 200       2.507  52.172  16.409  1.00 12.08     0.216 C 
HETATM    4  O3' GNP A 200       3.547  52.976  15.798  1.00 14.40    -0.218 OA
HETATM    5  C2' GNP A 200       1.221  52.215  15.525  1.00 12.17     0.234 C 
HETATM    6  O2' GNP A 200       0.962  53.484  14.863  1.00 13.60    -0.216 OA
HETATM    7  C1' GNP A 200       1.583  51.236  14.390  1.00 11.60     0.241 C 
ENDROOT
BRANCH   1   8
HETATM    8  C5' GNP A 200       2.469  49.864  17.432  1.00 10.62     0.187 C 
BRANCH   8   9
HETATM    9  O5' GNP A 200       3.374  48.766  17.691  1.00  9.72    -0.268 OA
BRANCH   9  10
HETATM   10  PA  GNP A 200       3.102  47.367  17.138  1.00 10.32     0.418 P 
HETATM   11  O1A GNP A 200       3.411  47.331  15.638  1.00  9.87    -0.624 OA
HETATM   12  O2A GNP A 200       1.760  46.849  17.612  1.00 11.09    -0.624 OA
BRANCH  10  13
HETATM   13  O3A GNP A 200       4.269  46.454  17.946  1.00  9.21    -0.185 OA
BRANCH  13  14
HETATM   14  PB  GNP A 200       4.610  44.952  17.752  1.00  8.42     0.401 P 
HETATM   15  O1B GNP A 200       3.904  44.310  18.878  1.00  8.14    -0.628 OA
HETATM   16  O2B GNP A 200       6.019  44.758  17.651  1.00  8.71    -0.628 OA
BRANCH  14  17
HETATM   17  N3B GNP A 200       3.778  44.516  16.256  1.00  9.58    -0.091 NA
BRANCH  17  18
HETATM   18  PG  GNP A 200       4.506  43.816  14.995  1.00  9.51     0.404 P 
HETATM   19  O1G GNP A 200       5.346  44.885  14.254  1.00 10.72    -0.621 OA
HETATM   20  O2G GNP A 200       3.552  43.183  14.170  1.00 10.01    -0.621 OA
HETATM   21  O3G GNP A 200       5.436  42.776  15.679  1.00 11.72    -0.621 OA
ENDBRANCH  17  18
ENDBRANCH  14  17
ENDBRANCH  13  14
ENDBRANCH  10  13
ENDBRANCH   9  10
ENDBRANCH   8   9
ENDBRANCH   1   8
BRANCH   7  22
HETATM   22  N9  GNP A 200       0.453  50.530  13.688  1.00  9.54    -0.269 N 
HETATM   23  C4  GNP A 200       0.440  50.147  12.435  1.00  9.54     0.187 A 
HETATM   24  N3  GNP A 200       1.367  50.227  11.503  1.00 10.76    -0.039 NA
HETATM   25  C5  GNP A 200      -0.880  49.650  12.314  1.00  8.26     0.162 A 
HETATM   26  C2  GNP A 200       1.137  49.789  10.371  1.00  9.86     0.772 A 
HETATM   27  N1  GNP A 200      -0.181  49.189  10.036  1.00 10.22    -0.029 NA
HETATM   28  N2  GNP A 200       1.875  49.744   9.310  1.00 11.49     0.062 N 
HETATM   29  C6  GNP A 200      -1.095  49.158  11.001  1.00 10.19     0.251 A 
HETATM   30  O6  GNP A 200      -2.312  48.639  10.685  1.00 11.17    -0.167 OA
HETATM   31  N7  GNP A 200      -1.510  49.751  13.436  1.00  8.86    -0.219 NA
HETATM   32  C8  GNP A 200      -0.752  50.320  14.395  1.00 11.92     0.182 A 
ENDBRANCH   7  22
TORSDOF 8
ENDMDL
MODEL 8
REMARK VINA RESULT:    -7.152      4.901      6.963
REMARK INTER + INTRA:         -11.362
REMARK INTER:                 -10.710
REMARK INTRA:                  -0.652
REMARK UNBOUND:                -0.866
REMARK  8 active torsions:
REMARK  status: ('A' for Active; 'I' for Inactive)
REMARK    1  A    between atoms: PA_1  and  O5'_5 
REMARK    2  A    between atoms: PA_1  and  O3A_24 
REMARK    3  A    between atoms: PB_2  and  N3B_23 
REMARK    4  A    between atoms: PB_2  and  O3A_24 
REMARK    5  A    between atoms: PG_3  and  N3B_23 
REMARK    6  A    between atoms: C5'_4  and  O5'_5 
REMARK    7  A    between atoms: C5'_4  and  C4'_6 
REMARK    8  A    between atoms: C1'_12  and  N9_32 
ROOT
HETATM    1  C4' GNP A 200       4.131  43.916  19.380  1.00 11.60     0.181 C 
HETATM    2  O4' GNP A 200       3.574  45.152  18.828  1.00 10.96    -0.331 OA
HETATM    3  C3' GNP A 200       4.092  42.892  18.235  1.00 12.08     0.216 C 
HETATM    4  O3' GNP A 200       2.812  42.214  18.288  1.00 14.40    -0.218 OA
HETATM    5  C2' GNP A 200       4.155  43.801  16.968  1.00 12.17     0.234 C 
HETATM    6  O2' GNP A 200       3.482  43.276  15.791  1.00 13.60    -0.216 OA
HETATM    7  C1' GNP A 200       3.309  45.014  17.406  1.00 11.60     0.241 C 
ENDROOT
BRANCH   1   8
HETATM    8  C5' GNP A 200       5.475  44.131  19.947  1.00 10.62     0.187 C 
BRANCH   8   9
HETATM    9  O5' GNP A 200       5.413  44.566  21.325  1.00  9.72    -0.268 OA
BRANCH   9  10
HETATM   10  PA  GNP A 200       6.358  43.992  22.380  1.00 10.32     0.418 P 
HETATM   11  O1A GNP A 200       6.623  42.511  22.093  1.00  9.87    -0.624 OA
HETATM   12  O2A GNP A 200       5.920  44.392  23.774  1.00 11.09    -0.624 OA
BRANCH  10  13
HETATM   13  O3A GNP A 200       7.774  44.858  22.069  1.00  9.21    -0.185 OA
BRANCH  13  14
HETATM   14  PB  GNP A 200       9.106  44.831  22.867  1.00  8.42     0.401 P 
HETATM   15  O1B GNP A 200       9.696  43.538  22.469  1.00  8.14    -0.628 OA
HETATM   16  O2B GNP A 200       8.873  45.059  24.254  1.00  8.71    -0.628 OA
BRANCH  14  17
HETATM   17  N3B GNP A 200      10.064  46.124  22.139  1.00  9.58    -0.091 NA
BRANCH  17  18
HETATM   18  PG  GNP A 200      11.571  46.488  22.592  1.00  9.51     0.404 P 
HETATM   19  O1G GNP A 200      12.502  46.348  21.363  1.00 10.72    -0.621 OA
HETATM   20  O2G GNP A 200      11.961  45.684  23.683  1.00 10.01    -0.621 OA
HETATM   21  O3G GNP A 200      11.447  47.979  23.008  1.00 11.72    -0.621 OA
ENDBRANCH  17  18
ENDBRANCH  14  17
ENDBRANCH  13  14
ENDBRANCH  10  13
ENDBRANCH   9  10
ENDBRANCH   8   9
ENDBRANCH   1   8
BRANCH   7  22
HETATM   22  N9  GNP A 200       3.605  46.343  16.761  1.00  9.54    -0.269 N 
HETATM   23  C4  GNP A 200       2.963  47.465  16.972  1.00  9.54     0.187 A 
HETATM   24  N3  GNP A 200       1.965  47.744  17.785  1.00 10.76    -0.039 NA
HETATM   25  C5  GNP A 200       3.598  48.323  16.042  1.00  8.26     0.162 A 
HETATM   26  C2  GNP A 200       1.510  48.891  17.825  1.00  9.86     0.772 A 
HETATM   27  N1  GNP A 200       2.057  49.962  16.951  1.00 10.22    -0.029 NA
HETATM   28  N2  GNP A 200       0.557  49.405  18.534  1.00 11.49     0.062 N 
HETATM   29  C6  GNP A 200       3.043  49.626  16.126  1.00 10.19     0.251 A 
HETATM   30  O6  GNP A 200       3.522  50.598  15.304  1.00 11.17    -0.167 OA
HETATM   31  N7  GNP A 200       4.524  47.694  15.400  1.00  8.86    -0.219 NA
HETATM   32  C8  GNP A 200       4.612  46.400  15.772  1.00 11.92     0.182 A 
ENDBRANCH   7  22
TORSDOF 8
ENDMDL
MODEL 9
REMARK VINA RESULT:    -7.120      4.437      7.951
REMARK INTER + INTRA:         -11.316
REMARK INTER:                 -10.058
REMARK INTRA:                  -1.258
REMARK UNBOUND:                -0.866
REMARK  8 active torsions:
REMARK  status: ('A' for Active; 'I' for Inactive)
REMARK    1  A    between atoms: PA_1  and  O5'_5 
REMARK    2  A    between atoms: PA_1  and  O3A_24 
REMARK    3  A    between atoms: PB_2  and  N3B_23 
REMARK    4  A    between atoms: PB_2  and  O3A_24 
REMARK    5  A    between atoms: PG_3  and  N3B_23 
REMARK    6  A    between atoms: C5'_4  and  O5'_5 
REMARK    7  A    between atoms: C5'_4  and  C4'_6 
REMARK    8  A    between atoms: C1'_12  and  N9_32 
ROOT
HETATM    1  C4' GNP A 200       0.923  50.197  16.940  1.00 11.60     0.181 C 
HETATM    2  O4' GNP A 200       1.453  49.178  16.033  1.00 10.96    -0.331 OA
HETATM    3  C3' GNP A 200       1.490  49.859  18.327  1.00 12.08     0.216 C 
HETATM    4  O3' GNP A 200       0.565  48.952  18.977  1.00 14.40    -0.218 OA
HETATM    5  C2' GNP A 200       2.810  49.104  17.976  1.00 12.17     0.234 C 
HETATM    6  O2' GNP A 200       3.226  48.095  18.938  1.00 13.60    -0.216 OA
HETATM    7  C1' GNP A 200       2.397  48.312  16.718  1.00 11.60     0.241 C 
ENDROOT
BRANCH   1   8
HETATM    8  C5' GNP A 200       1.246  51.559  16.475  1.00 10.62     0.187 C 
BRANCH   8   9
HETATM    9  O5' GNP A 200       1.438  51.606  15.043  1.00  9.72    -0.268 OA
BRANCH   9  10
HETATM   10  PA  GNP A 200       0.598  52.528  14.160  1.00 10.32     0.418 P 
HETATM   11  O1A GNP A 200       1.484  53.620  13.553  1.00  9.87    -0.624 OA
HETATM   12  O2A GNP A 200      -0.676  52.941  14.868  1.00 11.09    -0.624 OA
BRANCH  10  13
HETATM   13  O3A GNP A 200       0.128  51.475  12.927  1.00  9.21    -0.185 OA
BRANCH  13  14
HETATM   14  PB  GNP A 200       1.000  50.899  11.778  1.00  8.42     0.401 P 
HETATM   15  O1B GNP A 200       1.949  50.027  12.497  1.00  8.14    -0.628 OA
HETATM   16  O2B GNP A 200       1.536  51.945  10.971  1.00  8.71    -0.628 OA
BRANCH  14  17
HETATM   17  N3B GNP A 200      -0.116  49.874  10.870  1.00  9.58    -0.091 NA
BRANCH  17  18
HETATM   18  PG  GNP A 200       0.204  49.280   9.403  1.00  9.51     0.404 P 
HETATM   19  O1G GNP A 200      -0.685  48.033   9.170  1.00 10.72    -0.621 OA
HETATM   20  O2G GNP A 200       1.583  49.014   9.273  1.00 10.01    -0.621 OA
HETATM   21  O3G GNP A 200      -0.237  50.439   8.467  1.00 11.72    -0.621 OA
ENDBRANCH  17  18
ENDBRANCH  14  17
ENDBRANCH  13  14
ENDBRANCH  10  13
ENDBRANCH   9  10
ENDBRANCH   8   9
ENDBRANCH   1   8
BRANCH   7  22
HETATM   22  N9  GNP A 200       3.478  47.953  15.732  1.00  9.54    -0.269 N 
HETATM   23  C4  GNP A 200       4.038  46.777  15.594  1.00  9.54     0.187 A 
HETATM   24  N3  GNP A 200       3.806  45.637  16.210  1.00 10.76    -0.039 NA
HETATM   25  C5  GNP A 200       5.024  47.057  14.616  1.00  8.26     0.162 A 
HETATM   26  C2  GNP A 200       4.463  44.634  15.912  1.00  9.86     0.772 A 
HETATM   27  N1  GNP A 200       5.531  44.698  14.880  1.00 10.22    -0.029 NA
HETATM   28  N2  GNP A 200       4.415  43.421  16.359  1.00 11.49     0.062 N 
HETATM   29  C6  GNP A 200       5.749  45.878  14.307  1.00 10.19     0.251 A 
HETATM   30  O6  GNP A 200       6.748  45.943  13.386  1.00 11.17    -0.167 OA
HETATM   31  N7  GNP A 200       4.969  48.295  14.255  1.00  8.86    -0.219 NA
HETATM   32  C8  GNP A 200       4.015  48.977  14.921  1.00 11.92     0.182 A 
ENDBRANCH   7  22
TORSDOF 8
ENDMDL
