@<TRIPOS>MOLECULE
*****
 58 61 0 0 0
SMALL
GASTEIGER

@<TRIPOS>ATOM
      1  C1       -37.2544   -6.8794   43.1187 C.3     1  LEV1       -0.0473
      2  N1       -37.4565   -6.2540   40.7351 N.3     1  LEV1       -0.2912
      3  O1       -39.9725   -5.8464   42.0989 O.3     1  LEV1       -0.3718
      4  C2       -37.9328   -7.2134   41.7742 C.3     1  LEV1        0.0314
      5  N2       -41.4266   -3.3766   41.7837 N.3     1  LEV1       -0.2920
      6  O2       -36.3983   -3.8108   37.4298 O.3     1  LEV1       -0.3910
      7  C3       -39.4765   -7.2014   41.9213 C.3     1  LEV1        0.0635
      8  N3       -43.0459   -1.6791   43.5067 N.3     1  LEV1       -0.3029
      9  O3       -33.9429   -5.5462   37.4053 O.3     1  LEV1       -0.3668
     10  C4       -39.3736   -4.7868   41.2931 C.3     1  LEV1        0.0927
     11  O4       -35.6095   -6.9770   36.6940 O.3     1  LEV1       -0.3668
     12  C5       -38.5137   -5.3848   40.1513 C.3     1  LEV1        0.0438
     13  C6       -36.5849   -6.8698   39.7070 C.3     1  LEV1        0.0094
     14  C7       -35.9039   -5.7816   38.8445 C.3     1  LEV1        0.0487
     15  C8       -36.9889   -4.8696   38.1933 C.3     1  LEV1        0.0682
     16  C9       -37.8815   -4.2553   39.3018 C.3     1  LEV1        0.0062
     17  C10      -38.9991   -3.3536   38.7180 C.3     1  LEV1       -0.0135
     18  C11      -39.8718   -2.7495   39.8405 C.3     1  LEV1        0.1192
     19  C12      -40.4909   -3.8721   40.7244 C.3     1  LEV1        0.0693
     20  C13      -40.8150   -2.6736   42.9468 C.3     1  LEV1        0.0122
     21  C14      -41.8758   -2.4191   44.0412 C.3     1  LEV1        0.0114
     22  C15      -43.6479   -2.3930   42.3534 C.3     1  LEV1        0.0114
     23  C16      -42.6075   -2.6555   41.2412 C.3     1  LEV1        0.0122
     24  C17      -42.7627   -0.2501   43.2365 C.3     1  LEV1       -0.0127
     25  C18      -34.9361   -6.4628   37.8378 C.3     1  LEV1        0.1595
     26  F1       -39.1192   -1.8991   40.5661 F       1  LEV1       -0.2438
     27  H01      -36.1676   -6.9338   43.0218 H       1  LEV1        0.0245
     28  H02      -37.5184   -5.8730   43.4523 H       1  LEV1        0.0245
     29  H03      -37.5625   -7.5885   43.8901 H       1  LEV1        0.0245
     30  H04      -37.6380   -8.2299   41.4969 H       1  LEV1        0.0482
     31  H05      -36.0510   -3.1360   38.0380 H       1  LEV1        0.2098
     32  H06      -39.9302   -7.6174   41.0174 H       1  LEV1        0.0575
     33  H07      -39.7883   -7.8081   42.7758 H       1  LEV1        0.0575
     34  H08      -33.6150   -5.1110   38.2070 H       1  LEV1        0.2125
     35  H09      -38.7152   -4.2034   41.9426 H       1  LEV1        0.0628
     36  H10      -35.8820   -7.8820   36.9010 H       1  LEV1        0.2125
     37  H11      -39.1576   -5.9884   39.5038 H       1  LEV1        0.0492
     38  H12      -37.1783   -7.5322   39.0698 H       1  LEV1        0.0432
     39  H13      -35.8104   -7.4634   40.2014 H       1  LEV1        0.0432
     40  H14      -35.3012   -5.1657   39.5185 H       1  LEV1        0.0387
     41  H15      -37.6092   -5.4753   37.5267 H       1  LEV1        0.0601
     42  H16      -37.2477   -3.6442   39.9514 H       1  LEV1        0.0343
     43  H17      -39.6280   -3.9353   38.0393 H       1  LEV1        0.0297
     44  H18      -38.5635   -2.5387   38.1352 H       1  LEV1        0.0297
     45  H19      -40.6655   -2.1576   39.3792 H       1  LEV1        0.0668
     46  H20      -41.0897   -4.4986   40.0571 H       1  LEV1        0.0517
     47  H21      -40.3864   -1.7196   42.6327 H       1  LEV1        0.0439
     48  H22      -40.0212   -3.2825   43.3848 H       1  LEV1        0.0439
     49  H23      -42.2147   -3.3849   44.4271 H       1  LEV1        0.0439
     50  H24      -41.4268   -1.8627   44.8686 H       1  LEV1        0.0439
     51  H25      -44.4827   -1.8135   41.9495 H       1  LEV1        0.0439
     52  H26      -44.0380   -3.3548   42.6986 H       1  LEV1        0.0439
     53  H27      -43.0759   -3.2551   40.4559 H       1  LEV1        0.0439
     54  H28      -42.2959   -1.7012   40.8088 H       1  LEV1        0.0439
     55  H29      -42.0092   -0.1418   42.4521 H       1  LEV1        0.0391
     56  H30      -43.6787    0.2556   42.9194 H       1  LEV1        0.0391
     57  H31      -42.3960    0.2322   44.1466 H       1  LEV1        0.0391
     58  H32      -34.4003   -7.2974   38.3158 H       1  LEV1        0.0909
@<TRIPOS>BOND
     1    11    36    1
     2    11    25    1
     3     9    25    1
     4     9    34    1
     5     6    31    1
     6     6    15    1
     7    41    15    1
     8    25    58    1
     9    25    14    1
    10    43    17    1
    11    44    17    1
    12    15    14    1
    13    15    16    1
    14    17    16    1
    15    17    18    1
    16    14    40    1
    17    14    13    1
    18    45    18    1
    19    38    13    1
    20    16    42    1
    21    16    12    1
    22    37    12    1
    23    18    26    1
    24    18    19    1
    25    13    39    1
    26    13     2    1
    27    46    19    1
    28    53    23    1
    29    12     2    1
    30    12    10    1
    31    19    10    1
    32    19     5    1
    33    54    23    1
    34     2     4    1
    35    23     5    1
    36    23    22    1
    37    32     7    1
    38    10    35    1
    39    10     3    1
    40    30     4    1
    41    51    22    1
    42     5    20    1
    43     4     7    1
    44     4     1    1
    45    22    52    1
    46    22     8    1
    47     7     3    1
    48     7    33    1
    49    47    20    1
    50    56    24    1
    51    55    24    1
    52    20    48    1
    53    20    21    1
    54    27     1    1
    55     1    29    1
    56     1    28    1
    57    24     8    1
    58    24    57    1
    59     8    21    1
    60    21    49    1
    61    21    50    1
