MODEL 1
REMARK VINA RESULT:      -8.8      0.000      0.000
REMARK  1 active torsions:
REMARK  status: ('A' for Active; 'I' for Inactive)
REMARK    1  A    between atoms: C9_13  and  C10_14 
ROOT
HETATM    1  C1  TDL     1      56.474  86.767 145.756  1.00  0.00     0.153 C 
HETATM    2  N1  TDL     1      57.576  87.259 146.562  1.00  0.00    -0.346 N 
HETATM    3  C2  TDL     1      58.898  87.162 145.964  1.00  0.00     0.228 C 
HETATM    4  C3  TDL     1      60.039  87.812 146.744  1.00  0.00     0.239 C 
HETATM    5  O1  TDL     1      61.022  88.272 146.166  1.00  0.00    -0.271 OA
HETATM    6  N2  TDL     1      59.960  87.627 148.130  1.00  0.00    -0.323 N 
HETATM    7  C4  TDL     1      58.613  87.807 148.733  1.00  0.00     0.185 C 
HETATM    8  C5  TDL     1      57.471  87.128 147.947  1.00  0.00     0.243 C 
HETATM    9  O2  TDL     1      56.453  86.702 148.490  1.00  0.00    -0.271 OA
HETATM   10  C6  TDL     1      58.515  87.347 150.207  1.00  0.00     0.076 C 
HETATM   11  C7  TDL     1      59.651  87.908 150.973  1.00  0.00    -0.018 A 
HETATM   12  C8  TDL     1      60.833  88.219 150.341  1.00  0.00     0.045 A 
HETATM   13  C9  TDL     1      61.159  88.060 148.887  1.00  0.00     0.172 C 
HETATM   14  N3  TDL     1      61.698  88.704 151.286  1.00  0.00    -0.356 N 
HETATM   15  C17 TDL     1      61.085  88.717 152.521  1.00  0.00     0.043 A 
HETATM   16  C18 TDL     1      61.577  89.124 153.766  1.00  0.00     0.030 A 
HETATM   17  C19 TDL     1      60.722  89.019 154.867  1.00  0.00     0.002 A 
HETATM   18  C20 TDL     1      59.427  88.525 154.726  1.00  0.00     0.001 A 
HETATM   19  C21 TDL     1      58.949  88.119 153.474  1.00  0.00     0.014 A 
HETATM   20  C22 TDL     1      59.792  88.217 152.350  1.00  0.00    -0.001 A 
HETATM   21  H15 TDL     1      62.653  88.990 151.118  1.00  0.00     0.166 HD
ENDROOT
BRANCH  13  22
HETATM   22  C10 TDL     1      62.306  87.068 148.696  1.00  0.00    -0.027 A 
HETATM   23  C11 TDL     1      63.635  87.515 148.567  1.00  0.00     0.049 A 
HETATM   24  C12 TDL     1      64.627  86.574 148.390  1.00  0.00     0.105 A 
HETATM   25  C13 TDL     1      64.350  85.229 148.341  1.00  0.00     0.105 A 
HETATM   26  O4  TDL     1      65.954  86.837 148.248  1.00  0.00    -0.323 OA
HETATM   27  C14 TDL     1      63.067  84.748 148.470  1.00  0.00     0.040 A 
HETATM   28  O3  TDL     1      65.467  84.476 148.161  1.00  0.00    -0.323 OA
HETATM   29  C15 TDL     1      62.037  85.678 148.649  1.00  0.00     0.012 A 
HETATM   30  C16 TDL     1      66.480  85.501 148.103  1.00  0.00     0.352 A 
ENDBRANCH  13  22
TORSDOF 1
ENDMDL
