MODEL 1
REMARK VINA RESULT:      -7.3      0.000      0.000
REMARK  1 active torsions:
REMARK  status: ('A' for Active; 'I' for Inactive)
REMARK    1  A    between atoms: C_13  and  C_14 
ROOT
HETATM    1  C   TDL     1      56.332  88.616 146.760  1.00  0.00     0.153 C 
HETATM    2  N   TDL     1      57.405  87.918 147.437  1.00  0.00    -0.346 N 
HETATM    3  C   TDL     1      57.048  86.787 148.282  1.00  0.00     0.228 C 
HETATM    4  C   TDL     1      58.093  86.511 149.365  1.00  0.00     0.239 C 
HETATM    5  O   TDL     1      57.795  85.912 150.397  1.00  0.00    -0.271 OA
HETATM    6  N   TDL     1      59.404  86.862 149.020  1.00  0.00    -0.323 N 
HETATM    7  C   TDL     1      59.699  87.001 147.563  1.00  0.00     0.185 C 
HETATM    8  C   TDL     1      58.681  87.940 146.876  1.00  0.00     0.243 C 
HETATM    9  O   TDL     1      58.940  88.556 145.844  1.00  0.00    -0.271 OA
HETATM   10  C   TDL     1      61.116  87.509 147.216  1.00  0.00     0.076 C 
HETATM   11  C   TDL     1      62.116  86.803 148.046  1.00  0.00    -0.018 A 
HETATM   12  C   TDL     1      61.777  86.344 149.298  1.00  0.00     0.045 A 
HETATM   13  C   TDL     1      60.451  86.464 149.981  1.00  0.00     0.172 C 
HETATM   14  N   TDL     1      62.887  85.757 149.845  1.00  0.00    -0.356 N 
HETATM   15  C   TDL     1      63.938  85.826 148.958  1.00  0.00     0.043 A 
HETATM   16  C   TDL     1      65.254  85.366 149.084  1.00  0.00     0.030 A 
HETATM   17  C   TDL     1      66.123  85.586 148.011  1.00  0.00     0.002 A 
HETATM   18  C   TDL     1      65.693  86.242 146.860  1.00  0.00     0.001 A 
HETATM   19  C   TDL     1      64.374  86.697 146.748  1.00  0.00     0.014 A 
HETATM   20  C   TDL     1      63.478  86.485 147.814  1.00  0.00    -0.001 A 
HETATM   21  H   TDL     1      62.943  85.351 150.770  1.00  0.00     0.166 HD
ENDROOT
BRANCH  13  22
HETATM   22  C   TDL     1      60.511  87.441 151.152  1.00  0.00    -0.027 A 
HETATM   23  C   TDL     1      59.555  87.398 152.186  1.00  0.00     0.049 A 
HETATM   24  C   TDL     1      59.655  88.316 153.209  1.00  0.00     0.105 A 
HETATM   25  C   TDL     1      60.656  89.256 153.245  1.00  0.00     0.105 A 
HETATM   26  O   TDL     1      58.812  88.416 154.272  1.00  0.00    -0.323 OA
HETATM   27  C   TDL     1      61.620  89.326 152.263  1.00  0.00     0.040 A 
HETATM   28  O   TDL     1      60.570  90.067 154.334  1.00  0.00    -0.323 OA
HETATM   29  C   TDL     1      61.545  88.409 151.211  1.00  0.00     0.012 A 
HETATM   30  C   TDL     1      59.396  89.530 154.977  1.00  0.00     0.352 A 
ENDBRANCH  13  22
TORSDOF 1
ENDMDL
