MODEL 1
REMARK VINA RESULT:      -6.9      0.000      0.000
REMARK  1 active torsions:
REMARK  status: ('A' for Active; 'I' for Inactive)
REMARK    1  A    between atoms: C_13  and  C_14 
ROOT
HETATM    1  C   TDL     1      56.890  86.381 145.802  1.00  0.00     0.153 C 
HETATM    2  N   TDL     1      57.859  86.992 146.689  1.00  0.00    -0.346 N 
HETATM    3  C   TDL     1      58.668  88.081 146.158  1.00  0.00     0.228 C 
HETATM    4  C   TDL     1      59.991  88.247 146.908  1.00  0.00     0.239 C 
HETATM    5  O   TDL     1      60.958  88.791 146.376  1.00  0.00    -0.271 OA
HETATM    6  N   TDL     1      59.956  87.868 148.255  1.00  0.00    -0.323 N 
HETATM    7  C   TDL     1      58.610  87.809 148.899  1.00  0.00     0.185 C 
HETATM    8  C   TDL     1      57.629  86.956 148.063  1.00  0.00     0.243 C 
HETATM    9  O   TDL     1      56.652  86.396 148.556  1.00  0.00    -0.271 OA
HETATM   10  C   TDL     1      58.588  87.269 150.347  1.00  0.00     0.076 C 
HETATM   11  C   TDL     1      59.687  87.881 151.124  1.00  0.00    -0.018 A 
HETATM   12  C   TDL     1      60.846  88.274 150.495  1.00  0.00     0.045 A 
HETATM   13  C   TDL     1      61.171  88.162 149.039  1.00  0.00     0.172 C 
HETATM   14  N   TDL     1      61.690  88.781 151.447  1.00  0.00    -0.356 N 
HETATM   15  C   TDL     1      61.086  88.727 152.684  1.00  0.00     0.043 A 
HETATM   16  C   TDL     1      61.564  89.126 153.938  1.00  0.00     0.030 A 
HETATM   17  C   TDL     1      60.726  88.940 155.041  1.00  0.00     0.002 A 
HETATM   18  C   TDL     1      59.461  88.376 154.895  1.00  0.00     0.001 A 
HETATM   19  C   TDL     1      58.996  87.980 153.636  1.00  0.00     0.014 A 
HETATM   20  C   TDL     1      59.820  88.159 152.508  1.00  0.00    -0.001 A 
HETATM   21  H   TDL     1      62.626  89.125 151.280  1.00  0.00     0.166 HD
ENDROOT
BRANCH  13  22
HETATM   22  C   TDL     1      62.248  87.112 148.784  1.00  0.00    -0.027 A 
HETATM   23  C   TDL     1      63.607  87.471 148.686  1.00  0.00     0.049 A 
HETATM   24  C   TDL     1      64.531  86.479 148.441  1.00  0.00     0.105 A 
HETATM   25  C   TDL     1      64.162  85.163 148.298  1.00  0.00     0.105 A 
HETATM   26  O   TDL     1      65.873  86.658 148.308  1.00  0.00    -0.323 OA
HETATM   27  C   TDL     1      62.848  84.764 148.400  1.00  0.00     0.040 A 
HETATM   28  O   TDL     1      65.224  84.348 148.057  1.00  0.00    -0.323 OA
HETATM   29  C   TDL     1      61.886  85.749 148.647  1.00  0.00     0.012 A 
HETATM   30  C   TDL     1      66.304  85.304 148.061  1.00  0.00     0.352 A 
ENDBRANCH  13  22
TORSDOF 1
ENDMDL
