MODEL 1
REMARK VINA RESULT:      -7.3      0.000      0.000
REMARK  1 active torsions:
REMARK  status: ('A' for Active; 'I' for Inactive)
REMARK    1  A    between atoms: C9_13  and  C10_14 
ROOT
HETATM    1  C1  TDL     1      45.861 119.550 129.790  1.00  0.00     0.153 C 
HETATM    2  N1  TDL     1      47.184 119.429 130.375  1.00  0.00    -0.346 N 
HETATM    3  C2  TDL     1      48.014 120.623 130.332  1.00  0.00     0.228 C 
HETATM    4  C3  TDL     1      49.346 120.544 131.075  1.00  0.00     0.239 C 
HETATM    5  O1  TDL     1      49.857 121.547 131.568  1.00  0.00    -0.271 OA
HETATM    6  N2  TDL     1      50.003 119.315 130.940  1.00  0.00    -0.323 N 
HETATM    7  C4  TDL     1      49.148 118.104 131.065  1.00  0.00     0.185 C 
HETATM    8  C5  TDL     1      47.815 118.188 130.292  1.00  0.00     0.243 C 
HETATM    9  O2  TDL     1      47.253 117.196 129.829  1.00  0.00    -0.271 OA
HETATM   10  C6  TDL     1      49.854 116.790 130.658  1.00  0.00     0.076 C 
HETATM   11  C7  TDL     1      51.180 116.719 131.311  1.00  0.00    -0.018 A 
HETATM   12  C8  TDL     1      51.844 117.872 131.665  1.00  0.00     0.045 A 
HETATM   13  C9  TDL     1      51.387 119.285 131.470  1.00  0.00     0.172 C 
HETATM   14  N3  TDL     1      53.036 117.509 132.235  1.00  0.00    -0.356 N 
HETATM   15  C17 TDL     1      53.146 116.134 132.260  1.00  0.00     0.043 A 
HETATM   16  C18 TDL     1      54.179 115.322 132.743  1.00  0.00     0.030 A 
HETATM   17  C19 TDL     1      54.020 113.938 132.631  1.00  0.00     0.002 A 
HETATM   18  C20 TDL     1      52.874 113.390 132.058  1.00  0.00     0.001 A 
HETATM   19  C21 TDL     1      51.851 114.215 131.578  1.00  0.00     0.014 A 
HETATM   20  C22 TDL     1      51.987 115.613 131.681  1.00  0.00    -0.001 A 
HETATM   21  H15 TDL     1      53.747 118.146 132.569  1.00  0.00     0.166 HD
ENDROOT
BRANCH  13  22
HETATM   22  C10 TDL     1      52.338 120.036 130.538  1.00  0.00    -0.027 A 
HETATM   23  C11 TDL     1      52.252 119.882 129.141  1.00  0.00     0.049 A 
HETATM   24  C12 TDL     1      53.141 120.579 128.350  1.00  0.00     0.105 A 
HETATM   25  C13 TDL     1      54.093 121.410 128.889  1.00  0.00     0.105 A 
HETATM   26  O4  TDL     1      53.194 120.541 126.992  1.00  0.00    -0.323 OA
HETATM   27  C14 TDL     1      54.209 121.595 130.249  1.00  0.00     0.040 A 
HETATM   28  O3  TDL     1      54.865 122.000 127.938  1.00  0.00    -0.323 OA
HETATM   29  C15 TDL     1      53.321 120.901 131.078  1.00  0.00     0.012 A 
HETATM   30  C16 TDL     1      54.289 121.445 126.738  1.00  0.00     0.352 A 
ENDBRANCH  13  22
TORSDOF 1
ENDMDL
