MODEL 1
REMARK VINA RESULT:      -8.9      0.000      0.000
REMARK  1 active torsions:
REMARK  status: ('A' for Active; 'I' for Inactive)
REMARK    1  A    between atoms: C9_13  and  C10_14 
ROOT
HETATM    1  C1  TDL     1      56.534  86.768 145.679  1.00  0.00     0.153 C 
HETATM    2  N1  TDL     1      57.628  87.256 146.498  1.00  0.00    -0.346 N 
HETATM    3  C2  TDL     1      58.956  87.161 145.913  1.00  0.00     0.228 C 
HETATM    4  C3  TDL     1      60.090  87.806 146.707  1.00  0.00     0.239 C 
HETATM    5  O1  TDL     1      61.079  88.268 146.141  1.00  0.00    -0.271 OA
HETATM    6  N2  TDL     1      59.997  87.617 148.091  1.00  0.00    -0.323 N 
HETATM    7  C4  TDL     1      58.643  87.795 148.681  1.00  0.00     0.185 C 
HETATM    8  C5  TDL     1      57.510  87.120 147.881  1.00  0.00     0.243 C 
HETATM    9  O2  TDL     1      56.486  86.693 148.413  1.00  0.00    -0.271 OA
HETATM   10  C6  TDL     1      58.531  87.330 150.152  1.00  0.00     0.076 C 
HETATM   11  C7  TDL     1      59.659  87.886 150.932  1.00  0.00    -0.018 A 
HETATM   12  C8  TDL     1      60.848  88.199 150.313  1.00  0.00     0.045 A 
HETATM   13  C9  TDL     1      61.188  88.046 148.862  1.00  0.00     0.172 C 
HETATM   14  N3  TDL     1      61.703  88.680 151.269  1.00  0.00    -0.356 N 
HETATM   15  C17 TDL     1      61.078  88.688 152.498  1.00  0.00     0.043 A 
HETATM   16  C18 TDL     1      61.558  89.090 153.749  1.00  0.00     0.030 A 
HETATM   17  C19 TDL     1      60.691  88.982 154.841  1.00  0.00     0.002 A 
HETATM   18  C20 TDL     1      59.397  88.489 154.685  1.00  0.00     0.001 A 
HETATM   19  C21 TDL     1      58.932  88.089 153.427  1.00  0.00     0.014 A 
HETATM   20  C22 TDL     1      59.786  88.190 152.312  1.00  0.00    -0.001 A 
HETATM   21  H15 TDL     1      62.661  88.966 151.112  1.00  0.00     0.166 HD
ENDROOT
BRANCH  13  22
HETATM   22  C10 TDL     1      62.336  87.053 148.679  1.00  0.00    -0.027 A 
HETATM   23  C11 TDL     1      63.669  87.499 148.587  1.00  0.00     0.049 A 
HETATM   24  C12 TDL     1      64.662  86.557 148.415  1.00  0.00     0.105 A 
HETATM   25  C13 TDL     1      64.382  85.215 148.336  1.00  0.00     0.105 A 
HETATM   26  O4  TDL     1      65.992  86.818 148.307  1.00  0.00    -0.323 OA
HETATM   27  C14 TDL     1      63.095  84.735 148.428  1.00  0.00     0.040 A 
HETATM   28  O3  TDL     1      65.501  84.461 148.168  1.00  0.00    -0.323 OA
HETATM   29  C15 TDL     1      62.065  85.665 148.602  1.00  0.00     0.012 A 
HETATM   30  C16 TDL     1      66.518  85.484 148.150  1.00  0.00     0.352 A 
ENDBRANCH  13  22
TORSDOF 1
ENDMDL
