MODEL 1
REMARK VINA RESULT:      -6.9      0.000      0.000
REMARK  1 active torsions:
REMARK  status: ('A' for Active; 'I' for Inactive)
REMARK    1  A    between atoms: C_13  and  C_14 
ROOT
HETATM    1  C   TDL     1      56.986  86.282 145.729  1.00  0.00     0.153 C 
HETATM    2  N   TDL     1      57.937  86.916 146.619  1.00  0.00    -0.346 N 
HETATM    3  C   TDL     1      58.739  88.008 146.084  1.00  0.00     0.228 C 
HETATM    4  C   TDL     1      60.051  88.199 146.847  1.00  0.00     0.239 C 
HETATM    5  O   TDL     1      61.018  88.748 146.320  1.00  0.00    -0.271 OA
HETATM    6  N   TDL     1      60.004  87.837 148.198  1.00  0.00    -0.323 N 
HETATM    7  C   TDL     1      58.651  87.770 148.828  1.00  0.00     0.185 C 
HETATM    8  C   TDL     1      57.691  86.895 147.991  1.00  0.00     0.243 C 
HETATM    9  O   TDL     1      56.714  86.329 148.480  1.00  0.00    -0.271 OA
HETATM   10  C   TDL     1      58.619  87.248 150.282  1.00  0.00     0.076 C 
HETATM   11  C   TDL     1      59.701  87.883 151.064  1.00  0.00    -0.018 A 
HETATM   12  C   TDL     1      60.862  88.282 150.443  1.00  0.00     0.045 A 
HETATM   13  C   TDL     1      61.207  88.156 148.993  1.00  0.00     0.172 C 
HETATM   14  N   TDL     1      61.688  88.812 151.399  1.00  0.00    -0.356 N 
HETATM   15  C   TDL     1      61.071  88.765 152.630  1.00  0.00     0.043 A 
HETATM   16  C   TDL     1      61.529  89.186 153.883  1.00  0.00     0.030 A 
HETATM   17  C   TDL     1      60.680  89.004 154.979  1.00  0.00     0.002 A 
HETATM   18  C   TDL     1      59.424  88.423 154.825  1.00  0.00     0.001 A 
HETATM   19  C   TDL     1      58.978  88.006 153.566  1.00  0.00     0.014 A 
HETATM   20  C   TDL     1      59.814  88.181 152.446  1.00  0.00    -0.001 A 
HETATM   21  H   TDL     1      62.623  89.165 151.239  1.00  0.00     0.166 HD
ENDROOT
BRANCH  13  22
HETATM   22  C   TDL     1      62.299  87.116 148.764  1.00  0.00    -0.027 A 
HETATM   23  C   TDL     1      63.656  87.489 148.693  1.00  0.00     0.049 A 
HETATM   24  C   TDL     1      64.595  86.505 148.470  1.00  0.00     0.105 A 
HETATM   25  C   TDL     1      64.242  85.185 148.325  1.00  0.00     0.105 A 
HETATM   26  O   TDL     1      65.937  86.697 148.364  1.00  0.00    -0.323 OA
HETATM   27  C   TDL     1      62.930  84.773 148.402  1.00  0.00     0.040 A 
HETATM   28  O   TDL     1      65.317  84.379 148.108  1.00  0.00    -0.323 OA
HETATM   29  C   TDL     1      61.953  85.749 148.625  1.00  0.00     0.012 A 
HETATM   30  C   TDL     1      66.387  85.347 148.131  1.00  0.00     0.352 A 
ENDBRANCH  13  22
TORSDOF 1
ENDMDL
