MODEL 1
REMARK VINA RESULT:      -6.9      0.000      0.000
REMARK  1 active torsions:
REMARK  status: ('A' for Active; 'I' for Inactive)
REMARK    1  A    between atoms: C_13  and  C_14 
ROOT
HETATM    1  C   TDL     1      56.949  86.281 145.745  1.00  0.00     0.153 C 
HETATM    2  N   TDL     1      57.904  86.914 146.632  1.00  0.00    -0.346 N 
HETATM    3  C   TDL     1      58.704  88.006 146.094  1.00  0.00     0.228 C 
HETATM    4  C   TDL     1      60.020  88.196 146.850  1.00  0.00     0.239 C 
HETATM    5  O   TDL     1      60.984  88.745 146.319  1.00  0.00    -0.271 OA
HETATM    6  N   TDL     1      59.980  87.832 148.202  1.00  0.00    -0.323 N 
HETATM    7  C   TDL     1      58.630  87.765 148.837  1.00  0.00     0.185 C 
HETATM    8  C   TDL     1      57.665  86.891 148.005  1.00  0.00     0.243 C 
HETATM    9  O   TDL     1      56.691  86.325 148.498  1.00  0.00    -0.271 OA
HETATM   10  C   TDL     1      58.604  87.242 150.291  1.00  0.00     0.076 C 
HETATM   11  C   TDL     1      59.691  87.876 151.069  1.00  0.00    -0.018 A 
HETATM   12  C   TDL     1      60.849  88.274 150.443  1.00  0.00     0.045 A 
HETATM   13  C   TDL     1      61.186  88.150 148.990  1.00  0.00     0.172 C 
HETATM   14  N   TDL     1      61.680  88.803 151.395  1.00  0.00    -0.356 N 
HETATM   15  C   TDL     1      61.069  88.756 152.628  1.00  0.00     0.043 A 
HETATM   16  C   TDL     1      61.534  89.175 153.880  1.00  0.00     0.030 A 
HETATM   17  C   TDL     1      60.690  88.992 154.980  1.00  0.00     0.002 A 
HETATM   18  C   TDL     1      59.433  88.412 154.832  1.00  0.00     0.001 A 
HETATM   19  C   TDL     1      58.981  87.996 153.574  1.00  0.00     0.014 A 
HETATM   20  C   TDL     1      59.811  88.172 152.450  1.00  0.00    -0.001 A 
HETATM   21  H   TDL     1      62.614  89.156 151.230  1.00  0.00     0.166 HD
ENDROOT
BRANCH  13  22
HETATM   22  C   TDL     1      62.277  87.110 148.755  1.00  0.00    -0.027 A 
HETATM   23  C   TDL     1      63.634  87.481 148.682  1.00  0.00     0.049 A 
HETATM   24  C   TDL     1      64.572  86.497 148.453  1.00  0.00     0.105 A 
HETATM   25  C   TDL     1      64.217  85.178 148.304  1.00  0.00     0.105 A 
HETATM   26  O   TDL     1      65.914  86.688 148.346  1.00  0.00    -0.323 OA
HETATM   27  C   TDL     1      62.904  84.768 148.382  1.00  0.00     0.040 A 
HETATM   28  O   TDL     1      65.290  84.372 148.082  1.00  0.00    -0.323 OA
HETATM   29  C   TDL     1      61.930  85.743 148.612  1.00  0.00     0.012 A 
HETATM   30  C   TDL     1      66.361  85.339 148.106  1.00  0.00     0.352 A 
ENDBRANCH  13  22
TORSDOF 1
ENDMDL
