MODEL 1
REMARK VINA RESULT:      -8.9      0.000      0.000
REMARK  1 active torsions:
REMARK  status: ('A' for Active; 'I' for Inactive)
REMARK    1  A    between atoms: C9_13  and  C10_14 
ROOT
HETATM    1  C1  TDL     1      56.479  86.772 145.732  1.00  0.00     0.153 C 
HETATM    2  N1  TDL     1      57.580  87.262 146.541  1.00  0.00    -0.346 N 
HETATM    3  C2  TDL     1      58.903  87.168 145.944  1.00  0.00     0.228 C 
HETATM    4  C3  TDL     1      60.042  87.815 146.728  1.00  0.00     0.239 C 
HETATM    5  O1  TDL     1      61.026  88.278 146.153  1.00  0.00    -0.271 OA
HETATM    6  N2  TDL     1      59.962  87.627 148.113  1.00  0.00    -0.323 N 
HETATM    7  C4  TDL     1      58.613  87.804 148.715  1.00  0.00     0.185 C 
HETATM    8  C5  TDL     1      57.474  87.126 147.925  1.00  0.00     0.243 C 
HETATM    9  O2  TDL     1      56.455  86.698 148.466  1.00  0.00    -0.271 OA
HETATM   10  C6  TDL     1      58.514  87.340 150.187  1.00  0.00     0.076 C 
HETATM   11  C7  TDL     1      59.648  87.898 150.957  1.00  0.00    -0.018 A 
HETATM   12  C8  TDL     1      60.831  88.212 150.327  1.00  0.00     0.045 A 
HETATM   13  C9  TDL     1      61.160  88.058 148.873  1.00  0.00     0.172 C 
HETATM   14  N3  TDL     1      61.695  88.695 151.275  1.00  0.00    -0.356 N 
HETATM   15  C17 TDL     1      61.080  88.703 152.509  1.00  0.00     0.043 A 
HETATM   16  C18 TDL     1      61.571  89.107 153.756  1.00  0.00     0.030 A 
HETATM   17  C19 TDL     1      60.713  88.998 154.856  1.00  0.00     0.002 A 
HETATM   18  C20 TDL     1      59.419  88.503 154.712  1.00  0.00     0.001 A 
HETATM   19  C21 TDL     1      58.943  88.102 153.458  1.00  0.00     0.014 A 
HETATM   20  C22 TDL     1      59.788  88.203 152.335  1.00  0.00    -0.001 A 
HETATM   21  H15 TDL     1      62.650  88.982 151.109  1.00  0.00     0.166 HD
ENDROOT
BRANCH  13  22
HETATM   22  C10 TDL     1      62.307  87.067 148.681  1.00  0.00    -0.027 A 
HETATM   23  C11 TDL     1      63.640  87.513 148.595  1.00  0.00     0.049 A 
HETATM   24  C12 TDL     1      64.633  86.573 148.415  1.00  0.00     0.105 A 
HETATM   25  C13 TDL     1      64.353  85.231 148.321  1.00  0.00     0.105 A 
HETATM   26  O4  TDL     1      65.963  86.834 148.311  1.00  0.00    -0.323 OA
HETATM   27  C14 TDL     1      63.065  84.751 148.406  1.00  0.00     0.040 A 
HETATM   28  O3  TDL     1      65.472  84.479 148.146  1.00  0.00    -0.323 OA
HETATM   29  C15 TDL     1      62.035  85.680 148.588  1.00  0.00     0.012 A 
HETATM   30  C16 TDL     1      66.488  85.501 148.140  1.00  0.00     0.352 A 
ENDBRANCH  13  22
TORSDOF 1
ENDMDL
