MODEL 1
REMARK VINA RESULT:      -8.7      0.000      0.000
REMARK  1 active torsions:
REMARK  status: ('A' for Active; 'I' for Inactive)
REMARK    1  A    between atoms: C9_13  and  C10_14 
ROOT
HETATM    1  C1  TDL     1      75.718 114.374 169.667  1.00  0.00     0.153 C 
HETATM    2  N1  TDL     1      75.476 113.457 168.568  1.00  0.00    -0.346 N 
HETATM    3  C2  TDL     1      74.148 113.506 167.975  1.00  0.00     0.228 C 
HETATM    4  C3  TDL     1      73.936 112.652 166.728  1.00  0.00     0.239 C 
HETATM    5  O1  TDL     1      73.129 112.984 165.861  1.00  0.00    -0.271 OA
HETATM    6  N2  TDL     1      74.554 111.396 166.784  1.00  0.00    -0.323 N 
HETATM    7  C4  TDL     1      75.941 111.379 167.321  1.00  0.00     0.185 C 
HETATM    8  C5  TDL     1      76.137 112.229 168.594  1.00  0.00     0.243 C 
HETATM    9  O2  TDL     1      76.971 111.951 169.455  1.00  0.00    -0.271 OA
HETATM   10  C6  TDL     1      76.489 109.961 167.606  1.00  0.00     0.076 C 
HETATM   11  C7  TDL     1      76.234 109.091 166.436  1.00  0.00    -0.018 A 
HETATM   12  C8  TDL     1      75.182 109.354 165.588  1.00  0.00     0.045 A 
HETATM   13  C9  TDL     1      74.188 110.471 165.685  1.00  0.00     0.172 C 
HETATM   14  N3  TDL     1      75.181 108.392 164.612  1.00  0.00    -0.356 N 
HETATM   15  C17 TDL     1      76.225 107.514 164.816  1.00  0.00     0.043 A 
HETATM   16  C18 TDL     1      76.612 106.389 164.080  1.00  0.00     0.030 A 
HETATM   17  C19 TDL     1      77.725 105.672 164.530  1.00  0.00     0.002 A 
HETATM   18  C20 TDL     1      78.421 106.067 165.670  1.00  0.00     0.001 A 
HETATM   19  C21 TDL     1      78.021 107.195 166.397  1.00  0.00     0.014 A 
HETATM   20  C22 TDL     1      76.904 107.934 165.963  1.00  0.00    -0.001 A 
HETATM   21  H15 TDL     1      74.506 108.314 163.863  1.00  0.00     0.166 HD
ENDROOT
BRANCH  13  22
HETATM   22  C10 TDL     1      72.776 109.922 165.889  1.00  0.00    -0.027 A 
HETATM   23  C11 TDL     1      72.406 109.316 167.105  1.00  0.00     0.049 A 
HETATM   24  C12 TDL     1      71.120 108.833 167.230  1.00  0.00     0.105 A 
HETATM   25  C13 TDL     1      70.207 108.930 166.207  1.00  0.00     0.105 A 
HETATM   26  O4  TDL     1      70.605 108.222 168.330  1.00  0.00    -0.323 OA
HETATM   27  C14 TDL     1      70.525 109.520 165.004  1.00  0.00     0.040 A 
HETATM   28  O3  TDL     1      69.002 108.393 166.536  1.00  0.00    -0.323 OA
HETATM   29  C15 TDL     1      71.822 110.020 164.847  1.00  0.00     0.012 A 
HETATM   30  C16 TDL     1      69.262 107.946 167.882  1.00  0.00     0.352 A 
ENDBRANCH  13  22
TORSDOF 1
ENDMDL
