MODEL 1
REMARK VINA RESULT:      -6.9      0.000      0.000
REMARK  1 active torsions:
REMARK  status: ('A' for Active; 'I' for Inactive)
REMARK    1  A    between atoms: C_13  and  C_14 
ROOT
HETATM    1  C   TDL     1      56.925  86.231 145.752  1.00  0.00     0.153 C 
HETATM    2  N   TDL     1      57.883  86.875 146.628  1.00  0.00    -0.346 N 
HETATM    3  C   TDL     1      58.679  87.962 146.076  1.00  0.00     0.228 C 
HETATM    4  C   TDL     1      59.998  88.162 146.825  1.00  0.00     0.239 C 
HETATM    5  O   TDL     1      60.959  88.708 146.284  1.00  0.00    -0.271 OA
HETATM    6  N   TDL     1      59.964  87.811 148.180  1.00  0.00    -0.323 N 
HETATM    7  C   TDL     1      58.617  87.748 148.822  1.00  0.00     0.185 C 
HETATM    8  C   TDL     1      57.650  86.864 148.002  1.00  0.00     0.243 C 
HETATM    9  O   TDL     1      56.679  86.302 148.504  1.00  0.00    -0.271 OA
HETATM   10  C   TDL     1      58.598  87.239 150.281  1.00  0.00     0.076 C 
HETATM   11  C   TDL     1      59.687  87.882 151.048  1.00  0.00    -0.018 A 
HETATM   12  C   TDL     1      60.842  88.277 150.412  1.00  0.00     0.045 A 
HETATM   13  C   TDL     1      61.173  88.139 148.960  1.00  0.00     0.172 C 
HETATM   14  N   TDL     1      61.676  88.816 151.356  1.00  0.00    -0.356 N 
HETATM   15  C   TDL     1      61.070  88.780 152.593  1.00  0.00     0.043 A 
HETATM   16  C   TDL     1      61.540  89.212 153.838  1.00  0.00     0.030 A 
HETATM   17  C   TDL     1      60.701  89.038 154.943  1.00  0.00     0.002 A 
HETATM   18  C   TDL     1      59.444  88.454 154.806  1.00  0.00     0.001 A 
HETATM   19  C   TDL     1      58.988  88.025 153.555  1.00  0.00     0.014 A 
HETATM   20  C   TDL     1      59.813  88.192 152.426  1.00  0.00    -0.001 A 
HETATM   21  H   TDL     1      62.609  89.169 151.184  1.00  0.00     0.166 HD
ENDROOT
BRANCH  13  22
HETATM   22  C   TDL     1      62.265  87.099 148.731  1.00  0.00    -0.027 A 
HETATM   23  C   TDL     1      63.625  87.466 148.691  1.00  0.00     0.049 A 
HETATM   24  C   TDL     1      64.563  86.482 148.466  1.00  0.00     0.105 A 
HETATM   25  C   TDL     1      64.206  85.167 148.288  1.00  0.00     0.105 A 
HETATM   26  O   TDL     1      65.908  86.669 148.389  1.00  0.00    -0.323 OA
HETATM   27  C   TDL     1      62.891  84.760 148.332  1.00  0.00     0.040 A 
HETATM   28  O   TDL     1      65.282  84.361 148.074  1.00  0.00    -0.323 OA
HETATM   29  C   TDL     1      61.916  85.736 148.557  1.00  0.00     0.012 A 
HETATM   30  C   TDL     1      66.355  85.322 148.136  1.00  0.00     0.352 A 
ENDBRANCH  13  22
TORSDOF 1
ENDMDL
