MODEL 1
REMARK VINA RESULT:      -8.8      0.000      0.000
REMARK  1 active torsions:
REMARK  status: ('A' for Active; 'I' for Inactive)
REMARK    1  A    between atoms: C9_13  and  C10_14 
ROOT
HETATM    1  C1  TDL     1      56.492  86.769 145.738  1.00  0.00     0.153 C 
HETATM    2  N1  TDL     1      57.593  87.260 146.545  1.00  0.00    -0.346 N 
HETATM    3  C2  TDL     1      58.916  87.163 145.948  1.00  0.00     0.228 C 
HETATM    4  C3  TDL     1      60.056  87.811 146.730  1.00  0.00     0.239 C 
HETATM    5  O1  TDL     1      61.040  88.271 146.153  1.00  0.00    -0.271 OA
HETATM    6  N2  TDL     1      59.976  87.627 148.116  1.00  0.00    -0.323 N 
HETATM    7  C4  TDL     1      58.628  87.808 148.717  1.00  0.00     0.185 C 
HETATM    8  C5  TDL     1      57.487  87.129 147.930  1.00  0.00     0.243 C 
HETATM    9  O2  TDL     1      56.468  86.704 148.472  1.00  0.00    -0.271 OA
HETATM   10  C6  TDL     1      58.528  87.349 150.191  1.00  0.00     0.076 C 
HETATM   11  C7  TDL     1      59.663  87.909 150.959  1.00  0.00    -0.018 A 
HETATM   12  C8  TDL     1      60.847  88.219 150.327  1.00  0.00     0.045 A 
HETATM   13  C9  TDL     1      61.174  88.060 148.874  1.00  0.00     0.172 C 
HETATM   14  N3  TDL     1      61.711  88.704 151.273  1.00  0.00    -0.356 N 
HETATM   15  C17 TDL     1      61.097  88.717 152.508  1.00  0.00     0.043 A 
HETATM   16  C18 TDL     1      61.588  89.125 153.753  1.00  0.00     0.030 A 
HETATM   17  C19 TDL     1      60.731  89.020 154.853  1.00  0.00     0.002 A 
HETATM   18  C20 TDL     1      59.436  88.527 154.711  1.00  0.00     0.001 A 
HETATM   19  C21 TDL     1      58.959  88.121 153.459  1.00  0.00     0.014 A 
HETATM   20  C22 TDL     1      59.803  88.218 152.335  1.00  0.00    -0.001 A 
HETATM   21  H15 TDL     1      62.666  88.990 151.106  1.00  0.00     0.166 HD
ENDROOT
BRANCH  13  22
HETATM   22  C10 TDL     1      62.320  87.067 148.684  1.00  0.00    -0.027 A 
HETATM   23  C11 TDL     1      63.651  87.513 148.568  1.00  0.00     0.049 A 
HETATM   24  C12 TDL     1      64.643  86.571 148.392  1.00  0.00     0.105 A 
HETATM   25  C13 TDL     1      64.364  85.227 148.331  1.00  0.00     0.105 A 
HETATM   26  O4  TDL     1      65.971  86.833 148.262  1.00  0.00    -0.323 OA
HETATM   27  C14 TDL     1      63.079  84.747 148.447  1.00  0.00     0.040 A 
HETATM   28  O3  TDL     1      65.482  84.473 148.154  1.00  0.00    -0.323 OA
HETATM   29  C15 TDL     1      62.050  85.678 148.625  1.00  0.00     0.012 A 
HETATM   30  C16 TDL     1      66.496  85.497 148.112  1.00  0.00     0.352 A 
ENDBRANCH  13  22
TORSDOF 1
ENDMDL
