MODEL 1
REMARK VINA RESULT:      -7.1      0.000      0.000
REMARK  1 active torsions:
REMARK  status: ('A' for Active; 'I' for Inactive)
REMARK    1  A    between atoms: C9_13  and  C10_14 
ROOT
HETATM    1  C1  TDL     1      56.166 101.809 162.709  1.00  0.00     0.153 C 
HETATM    2  N1  TDL     1      57.020 102.012 161.553  1.00  0.00    -0.346 N 
HETATM    3  C2  TDL     1      56.447 101.660 160.264  1.00  0.00     0.228 C 
HETATM    4  C3  TDL     1      57.285 102.009 159.037  1.00  0.00     0.239 C 
HETATM    5  O1  TDL     1      56.753 102.272 157.959  1.00  0.00    -0.271 OA
HETATM    6  N2  TDL     1      58.657 101.782 159.198  1.00  0.00    -0.323 N 
HETATM    7  C4  TDL     1      59.239 102.221 160.494  1.00  0.00     0.185 C 
HETATM    8  C5  TDL     1      58.394 101.843 161.729  1.00  0.00     0.243 C 
HETATM    9  O2  TDL     1      58.892 101.623 162.832  1.00  0.00    -0.271 OA
HETATM   10  C6  TDL     1      60.684 101.726 160.737  1.00  0.00     0.076 C 
HETATM   11  C7  TDL     1      61.504 101.991 159.533  1.00  0.00    -0.018 A 
HETATM   12  C8  TDL     1      60.914 102.067 158.291  1.00  0.00     0.045 A 
HETATM   13  C9  TDL     1      59.461 101.909 157.959  1.00  0.00     0.172 C 
HETATM   14  N3  TDL     1      61.902 102.309 157.373  1.00  0.00    -0.356 N 
HETATM   15  C17 TDL     1      63.123 102.397 158.009  1.00  0.00     0.043 A 
HETATM   16  C18 TDL     1      64.398 102.630 157.481  1.00  0.00     0.030 A 
HETATM   17  C19 TDL     1      65.473 102.661 158.375  1.00  0.00     0.002 A 
HETATM   18  C20 TDL     1      65.278 102.466 159.741  1.00  0.00     0.001 A 
HETATM   19  C21 TDL     1      63.997 102.233 160.253  1.00  0.00     0.014 A 
HETATM   20  C22 TDL     1      62.897 102.197 159.373  1.00  0.00    -0.001 A 
HETATM   21  H15 TDL     1      61.770 102.389 156.374  1.00  0.00     0.166 HD
ENDROOT
BRANCH  13  22
HETATM   22  C10 TDL     1      59.244 100.702 157.048  1.00  0.00    -0.027 A 
HETATM   23  C11 TDL     1      59.097 100.864 155.657  1.00  0.00     0.049 A 
HETATM   24  C12 TDL     1      58.896  99.739 154.885  1.00  0.00     0.105 A 
HETATM   25  C13 TDL     1      58.841  98.482 155.437  1.00  0.00     0.105 A 
HETATM   26  O4  TDL     1      58.735  99.721 153.535  1.00  0.00    -0.323 OA
HETATM   27  C14 TDL     1      58.986  98.277 156.791  1.00  0.00     0.040 A 
HETATM   28  O3  TDL     1      58.636  97.515 154.504  1.00  0.00    -0.323 OA
HETATM   29  C15 TDL     1      59.190  99.399 157.601  1.00  0.00     0.012 A 
HETATM   30  C16 TDL     1      58.570  98.307 153.301  1.00  0.00     0.352 A 
ENDBRANCH  13  22
TORSDOF 1
ENDMDL
