MODEL 1
REMARK VINA RESULT:      -6.9      0.000      0.000
REMARK  1 active torsions:
REMARK  status: ('A' for Active; 'I' for Inactive)
REMARK    1  A    between atoms: C_13  and  C_14 
ROOT
HETATM    1  C   TDL     1      56.931  86.315 145.768  1.00  0.00     0.153 C 
HETATM    2  N   TDL     1      57.887  86.940 146.658  1.00  0.00    -0.346 N 
HETATM    3  C   TDL     1      58.687  88.037 146.129  1.00  0.00     0.228 C 
HETATM    4  C   TDL     1      60.004  88.219 146.886  1.00  0.00     0.239 C 
HETATM    5  O   TDL     1      60.968  88.773 146.359  1.00  0.00    -0.271 OA
HETATM    6  N   TDL     1      59.965  87.843 148.234  1.00  0.00    -0.323 N 
HETATM    7  C   TDL     1      58.616  87.771 148.871  1.00  0.00     0.185 C 
HETATM    8  C   TDL     1      57.650  86.905 148.032  1.00  0.00     0.243 C 
HETATM    9  O   TDL     1      56.676  86.335 148.520  1.00  0.00    -0.271 OA
HETATM   10  C   TDL     1      58.591  87.235 150.320  1.00  0.00     0.076 C 
HETATM   11  C   TDL     1      59.679  87.862 151.102  1.00  0.00    -0.018 A 
HETATM   12  C   TDL     1      60.837  88.266 150.478  1.00  0.00     0.045 A 
HETATM   13  C   TDL     1      61.172  88.154 149.025  1.00  0.00     0.172 C 
HETATM   14  N   TDL     1      61.669  88.785 151.434  1.00  0.00    -0.356 N 
HETATM   15  C   TDL     1      61.059  88.727 152.668  1.00  0.00     0.043 A 
HETATM   16  C   TDL     1      61.525  89.135 153.923  1.00  0.00     0.030 A 
HETATM   17  C   TDL     1      60.683  88.943 155.022  1.00  0.00     0.002 A 
HETATM   18  C   TDL     1      59.425  88.364 154.870  1.00  0.00     0.001 A 
HETATM   19  C   TDL     1      58.972  87.960 153.609  1.00  0.00     0.014 A 
HETATM   20  C   TDL     1      59.801  88.145 152.486  1.00  0.00    -0.001 A 
HETATM   21  H   TDL     1      62.603  89.139 151.272  1.00  0.00     0.166 HD
ENDROOT
BRANCH  13  22
HETATM   22  C   TDL     1      62.263  87.116 148.779  1.00  0.00    -0.027 A 
HETATM   23  C   TDL     1      63.621  87.485 148.727  1.00  0.00     0.049 A 
HETATM   24  C   TDL     1      64.558  86.503 148.487  1.00  0.00     0.105 A 
HETATM   25  C   TDL     1      64.201  85.188 148.308  1.00  0.00     0.105 A 
HETATM   26  O   TDL     1      65.902  86.692 148.397  1.00  0.00    -0.323 OA
HETATM   27  C   TDL     1      62.887  84.780 148.365  1.00  0.00     0.040 A 
HETATM   28  O   TDL     1      65.275  84.384 148.080  1.00  0.00    -0.323 OA
HETATM   29  C   TDL     1      61.913  85.753 148.605  1.00  0.00     0.012 A 
HETATM   30  C   TDL     1      66.348  85.346 148.134  1.00  0.00     0.352 A 
ENDBRANCH  13  22
TORSDOF 1
ENDMDL
