MODEL 1
REMARK VINA RESULT:      -7.6      0.000      0.000
REMARK  1 active torsions:
REMARK  status: ('A' for Active; 'I' for Inactive)
REMARK    1  A    between atoms: C_13  and  C_14 
ROOT
HETATM    1  C   TDL     1      45.811 119.782 129.833  1.00  0.00     0.153 C 
HETATM    2  N   TDL     1      47.163 119.593 130.317  1.00  0.00    -0.346 N 
HETATM    3  C   TDL     1      47.735 120.642 131.151  1.00  0.00     0.228 C 
HETATM    4  C   TDL     1      49.264 120.653 131.112  1.00  0.00     0.239 C 
HETATM    5  O   TDL     1      49.899 121.671 131.384  1.00  0.00    -0.271 OA
HETATM    6  N   TDL     1      49.856 119.403 130.891  1.00  0.00    -0.323 N 
HETATM    7  C   TDL     1      49.016 118.203 131.183  1.00  0.00     0.185 C 
HETATM    8  C   TDL     1      47.647 118.296 130.473  1.00  0.00     0.243 C 
HETATM    9  O   TDL     1      46.982 117.302 130.185  1.00  0.00    -0.271 OA
HETATM   10  C   TDL     1      49.648 116.843 130.814  1.00  0.00     0.076 C 
HETATM   11  C   TDL     1      51.058 116.810 131.260  1.00  0.00    -0.018 A 
HETATM   12  C   TDL     1      51.789 117.974 131.333  1.00  0.00     0.045 A 
HETATM   13  C   TDL     1      51.327 119.359 131.005  1.00  0.00     0.172 C 
HETATM   14  N   TDL     1      53.053 117.650 131.748  1.00  0.00    -0.356 N 
HETATM   15  C   TDL     1      53.146 116.291 131.951  1.00  0.00     0.043 A 
HETATM   16  C   TDL     1      54.233 115.515 132.369  1.00  0.00     0.030 A 
HETATM   17  C   TDL     1      54.041 114.135 132.479  1.00  0.00     0.002 A 
HETATM   18  C   TDL     1      52.810 113.555 132.180  1.00  0.00     0.001 A 
HETATM   19  C   TDL     1      51.731 114.342 131.762  1.00  0.00     0.014 A 
HETATM   20  C   TDL     1      51.899 115.736 131.646  1.00  0.00    -0.001 A 
HETATM   21  H   TDL     1      53.818 118.302 131.869  1.00  0.00     0.166 HD
ENDROOT
BRANCH  13  22
HETATM   22  C   TDL     1      51.985 119.882 129.732  1.00  0.00    -0.027 A 
HETATM   23  C   TDL     1      51.543 119.466 128.460  1.00  0.00     0.049 A 
HETATM   24  C   TDL     1      52.188 119.964 127.348  1.00  0.00     0.105 A 
HETATM   25  C   TDL     1      53.233 120.850 127.451  1.00  0.00     0.105 A 
HETATM   26  O   TDL     1      51.893 119.658 126.056  1.00  0.00    -0.323 OA
HETATM   27  C   TDL     1      53.689 121.294 128.672  1.00  0.00     0.040 A 
HETATM   28  O   TDL     1      53.730 121.212 126.237  1.00  0.00    -0.323 OA
HETATM   29  C   TDL     1      53.056 120.806 129.820  1.00  0.00     0.012 A 
HETATM   30  C   TDL     1      52.877 120.448 125.359  1.00  0.00     0.352 A 
ENDBRANCH  13  22
TORSDOF 1
ENDMDL
