MODEL 1
REMARK VINA RESULT:      -8.4      0.000      0.000
REMARK  1 active torsions:
REMARK  status: ('A' for Active; 'I' for Inactive)
REMARK    1  A    between atoms: C9_13  and  C10_14 
ROOT
HETATM    1  C1  TDL     1      78.273 106.194 165.089  1.00  0.00     0.153 C 
HETATM    2  N1  TDL     1      77.394 107.298 165.427  1.00  0.00    -0.346 N 
HETATM    3  C2  TDL     1      78.041 108.505 165.915  1.00  0.00     0.228 C 
HETATM    4  C3  TDL     1      77.135 109.715 166.131  1.00  0.00     0.239 C 
HETATM    5  O1  TDL     1      77.566 110.860 166.007  1.00  0.00    -0.271 OA
HETATM    6  N2  TDL     1      75.887 109.403 166.684  1.00  0.00    -0.323 N 
HETATM    7  C4  TDL     1      75.206 108.209 166.116  1.00  0.00     0.185 C 
HETATM    8  C5  TDL     1      76.128 106.986 165.923  1.00  0.00     0.243 C 
HETATM    9  O2  TDL     1      75.716 105.828 165.992  1.00  0.00    -0.271 OA
HETATM   10  C6  TDL     1      73.966 107.750 166.918  1.00  0.00     0.076 C 
HETATM   11  C7  TDL     1      73.102 108.918 167.201  1.00  0.00    -0.018 A 
HETATM   12  C8  TDL     1      73.642 110.182 167.275  1.00  0.00     0.045 A 
HETATM   13  C9  TDL     1      75.078 110.573 167.098  1.00  0.00     0.172 C 
HETATM   14  N3  TDL     1      72.624 111.055 167.554  1.00  0.00    -0.356 N 
HETATM   15  C17 TDL     1      71.431 110.370 167.655  1.00  0.00     0.043 A 
HETATM   16  C18 TDL     1      70.142 110.842 167.926  1.00  0.00     0.030 A 
HETATM   17  C19 TDL     1      69.106 109.905 167.974  1.00  0.00     0.002 A 
HETATM   18  C20 TDL     1      69.351 108.550 167.760  1.00  0.00     0.001 A 
HETATM   19  C21 TDL     1      70.647 108.093 167.492  1.00  0.00     0.014 A 
HETATM   20  C22 TDL     1      71.708 109.018 167.437  1.00  0.00    -0.001 A 
HETATM   21  H15 TDL     1      72.725 112.052 167.693  1.00  0.00     0.166 HD
ENDROOT
BRANCH  13  22
HETATM   22  C10 TDL     1      75.632 111.185 168.385  1.00  0.00    -0.027 A 
HETATM   23  C11 TDL     1      75.939 110.375 169.496  1.00  0.00     0.049 A 
HETATM   24  C12 TDL     1      76.430 110.983 170.632  1.00  0.00     0.105 A 
HETATM   25  C13 TDL     1      76.624 112.342 170.700  1.00  0.00     0.105 A 
HETATM   26  O4  TDL     1      76.773 110.351 171.786  1.00  0.00    -0.323 OA
HETATM   27  C14 TDL     1      76.344 113.170 169.636  1.00  0.00     0.040 A 
HETATM   28  O3  TDL     1      77.114 112.735 171.906  1.00  0.00    -0.323 OA
HETATM   29  C15 TDL     1      75.844 112.583 168.469  1.00  0.00     0.012 A 
HETATM   30  C16 TDL     1      77.206 111.468 172.589  1.00  0.00     0.352 A 
ENDBRANCH  13  22
TORSDOF 1
ENDMDL
