MODEL 1
REMARK VINA RESULT:      -8.6      0.000      0.000
REMARK  1 active torsions:
REMARK  status: ('A' for Active; 'I' for Inactive)
REMARK    1  A    between atoms: C9_13  and  C10_14 
ROOT
HETATM    1  C1  TDL     1      56.389  87.901 146.087  1.00  0.00     0.153 C 
HETATM    2  N1  TDL     1      57.420  87.374 146.963  1.00  0.00    -0.346 N 
HETATM    3  C2  TDL     1      57.122  87.397 148.386  1.00  0.00     0.228 C 
HETATM    4  C3  TDL     1      58.137  86.711 149.297  1.00  0.00     0.239 C 
HETATM    5  O1  TDL     1      57.791  86.194 150.357  1.00  0.00    -0.271 OA
HETATM    6  N2  TDL     1      59.471  86.926 148.930  1.00  0.00    -0.323 N 
HETATM    7  C4  TDL     1      59.769  86.821 147.476  1.00  0.00     0.185 C 
HETATM    8  C5  TDL     1      58.747  87.537 146.567  1.00  0.00     0.243 C 
HETATM    9  O2  TDL     1      59.053  88.021 145.478  1.00  0.00    -0.271 OA
HETATM   10  C6  TDL     1      61.182  87.314 147.085  1.00  0.00     0.076 C 
HETATM   11  C7  TDL     1      62.182  86.716 147.998  1.00  0.00    -0.018 A 
HETATM   12  C8  TDL     1      61.824  86.338 149.272  1.00  0.00     0.045 A 
HETATM   13  C9  TDL     1      60.474  86.452 149.913  1.00  0.00     0.172 C 
HETATM   14  N3  TDL     1      62.939  85.832 149.887  1.00  0.00    -0.356 N 
HETATM   15  C17 TDL     1      64.012  85.872 149.021  1.00  0.00     0.043 A 
HETATM   16  C18 TDL     1      65.338  85.467 149.212  1.00  0.00     0.030 A 
HETATM   17  C19 TDL     1      66.226  85.633 148.144  1.00  0.00     0.002 A 
HETATM   18  C20 TDL     1      65.803  86.185 146.937  1.00  0.00     0.001 A 
HETATM   19  C21 TDL     1      64.473  86.587 146.762  1.00  0.00     0.014 A 
HETATM   20  C22 TDL     1      63.559  86.428 147.822  1.00  0.00    -0.001 A 
HETATM   21  H15 TDL     1      62.985  85.498 150.841  1.00  0.00     0.166 HD
ENDROOT
BRANCH  13  22
HETATM   22  C10 TDL     1      60.528  87.386 151.122  1.00  0.00    -0.027 A 
HETATM   23  C11 TDL     1      59.592  87.269 152.168  1.00  0.00     0.049 A 
HETATM   24  C12 TDL     1      59.686  88.144 153.229  1.00  0.00     0.105 A 
HETATM   25  C13 TDL     1      60.660  89.111 153.288  1.00  0.00     0.105 A 
HETATM   26  O4  TDL     1      58.865  88.167 154.313  1.00  0.00    -0.323 OA
HETATM   27  C14 TDL     1      61.599  89.257 152.291  1.00  0.00     0.040 A 
HETATM   28  O3  TDL     1      60.575  89.866 154.416  1.00  0.00    -0.323 OA
HETATM   29  C15 TDL     1      61.530  88.385 151.199  1.00  0.00     0.012 A 
HETATM   30  C16 TDL     1      59.435  89.261 155.061  1.00  0.00     0.352 A 
ENDBRANCH  13  22
TORSDOF 1
ENDMDL
