MODEL 1
REMARK VINA RESULT:      -9.5      0.000      0.000
REMARK  1 active torsions:
REMARK  status: ('A' for Active; 'I' for Inactive)
REMARK    1  A    between atoms: C_13  and  C_14 
ROOT
HETATM    1  C   TDL     1      76.485 111.771 170.916  1.00  0.00     0.153 C 
HETATM    2  N   TDL     1      76.510 111.307 169.544  1.00  0.00    -0.346 N 
HETATM    3  C   TDL     1      76.579 112.313 168.492  1.00  0.00     0.228 C 
HETATM    4  C   TDL     1      76.020 111.808 167.161  1.00  0.00     0.239 C 
HETATM    5  O   TDL     1      75.607 112.592 166.307  1.00  0.00    -0.271 OA
HETATM    6  N   TDL     1      76.153 110.430 166.952  1.00  0.00    -0.323 N 
HETATM    7  C   TDL     1      77.186 109.725 167.768  1.00  0.00     0.185 C 
HETATM    8  C   TDL     1      77.017 110.038 169.271  1.00  0.00     0.243 C 
HETATM    9  O   TDL     1      77.415 109.281 170.155  1.00  0.00    -0.271 OA
HETATM   10  C   TDL     1      77.226 108.189 167.607  1.00  0.00     0.076 C 
HETATM   11  C   TDL     1      77.134 107.834 166.175  1.00  0.00    -0.018 A 
HETATM   12  C   TDL     1      76.461 108.655 165.300  1.00  0.00     0.045 A 
HETATM   13  C   TDL     1      75.765 109.942 165.614  1.00  0.00     0.172 C 
HETATM   14  N   TDL     1      76.514 108.079 164.058  1.00  0.00    -0.356 N 
HETATM   15  C   TDL     1      77.220 106.898 164.120  1.00  0.00     0.043 A 
HETATM   16  C   TDL     1      77.524 105.977 163.111  1.00  0.00     0.030 A 
HETATM   17  C   TDL     1      78.258 104.842 163.468  1.00  0.00     0.002 A 
HETATM   18  C   TDL     1      78.668 104.637 164.783  1.00  0.00     0.001 A 
HETATM   19  C   TDL     1      78.356 105.565 165.783  1.00  0.00     0.014 A 
HETATM   20  C   TDL     1      77.620 106.718 165.447  1.00  0.00    -0.001 A 
HETATM   21  H   TDL     1      76.083 108.447 163.220  1.00  0.00     0.166 HD
ENDROOT
BRANCH  13  22
HETATM   22  C   TDL     1      74.250 109.800 165.507  1.00  0.00    -0.027 A 
HETATM   23  C   TDL     1      73.534 108.956 166.379  1.00  0.00     0.049 A 
HETATM   24  C   TDL     1      72.168 108.859 166.223  1.00  0.00     0.105 A 
HETATM   25  C   TDL     1      71.497 109.564 165.253  1.00  0.00     0.105 A 
HETATM   26  O   TDL     1      71.336 108.086 166.971  1.00  0.00    -0.323 OA
HETATM   27  C   TDL     1      72.154 110.411 164.388  1.00  0.00     0.040 A 
HETATM   28  O   TDL     1      70.158 109.322 165.266  1.00  0.00    -0.323 OA
HETATM   29  C   TDL     1      73.540 110.529 164.520  1.00  0.00     0.012 A 
HETATM   30  C   TDL     1      70.066 108.381 166.356  1.00  0.00     0.352 A 
ENDBRANCH  13  22
TORSDOF 1
ENDMDL
