MODEL 1
REMARK VINA RESULT:      -7.3      0.000      0.000
REMARK  1 active torsions:
REMARK  status: ('A' for Active; 'I' for Inactive)
REMARK    1  A    between atoms: C_13  and  C_14 
ROOT
HETATM    1  C   TDL     1      56.320  88.658 146.787  1.00  0.00     0.153 C 
HETATM    2  N   TDL     1      57.392  87.951 147.458  1.00  0.00    -0.346 N 
HETATM    3  C   TDL     1      57.031  86.814 148.294  1.00  0.00     0.228 C 
HETATM    4  C   TDL     1      58.076  86.527 149.374  1.00  0.00     0.239 C 
HETATM    5  O   TDL     1      57.777  85.920 150.402  1.00  0.00    -0.271 OA
HETATM    6  N   TDL     1      59.388  86.876 149.031  1.00  0.00    -0.323 N 
HETATM    7  C   TDL     1      59.682  87.026 147.575  1.00  0.00     0.185 C 
HETATM    8  C   TDL     1      58.667  87.973 146.897  1.00  0.00     0.243 C 
HETATM    9  O   TDL     1      58.927  88.597 145.869  1.00  0.00    -0.271 OA
HETATM   10  C   TDL     1      61.101  87.532 147.232  1.00  0.00     0.076 C 
HETATM   11  C   TDL     1      62.099  86.817 148.056  1.00  0.00    -0.018 A 
HETATM   12  C   TDL     1      61.759  86.348 149.305  1.00  0.00     0.045 A 
HETATM   13  C   TDL     1      60.434  86.467 149.989  1.00  0.00     0.172 C 
HETATM   14  N   TDL     1      62.867  85.754 149.846  1.00  0.00    -0.356 N 
HETATM   15  C   TDL     1      63.919  85.827 148.959  1.00  0.00     0.043 A 
HETATM   16  C   TDL     1      65.233  85.362 149.081  1.00  0.00     0.030 A 
HETATM   17  C   TDL     1      66.103  85.588 148.010  1.00  0.00     0.002 A 
HETATM   18  C   TDL     1      65.674  86.254 146.864  1.00  0.00     0.001 A 
HETATM   19  C   TDL     1      64.356  86.714 146.756  1.00  0.00     0.014 A 
HETATM   20  C   TDL     1      63.460  86.496 147.821  1.00  0.00    -0.001 A 
HETATM   21  H   TDL     1      62.922  85.340 150.768  1.00  0.00     0.166 HD
ENDROOT
BRANCH  13  22
HETATM   22  C   TDL     1      60.497  87.434 151.168  1.00  0.00    -0.027 A 
HETATM   23  C   TDL     1      59.546  87.381 152.206  1.00  0.00     0.049 A 
HETATM   24  C   TDL     1      59.648  88.291 153.236  1.00  0.00     0.105 A 
HETATM   25  C   TDL     1      60.649  89.232 153.275  1.00  0.00     0.105 A 
HETATM   26  O   TDL     1      58.810  88.381 154.303  1.00  0.00    -0.323 OA
HETATM   27  C   TDL     1      61.608  89.312 152.290  1.00  0.00     0.040 A 
HETATM   28  O   TDL     1      60.565  90.034 154.371  1.00  0.00    -0.323 OA
HETATM   29  C   TDL     1      61.530  88.403 151.231  1.00  0.00     0.012 A 
HETATM   30  C   TDL     1      59.395  89.490 155.015  1.00  0.00     0.352 A 
ENDBRANCH  13  22
TORSDOF 1
ENDMDL
