MODEL 1
REMARK VINA RESULT:      -8.9      0.000      0.000
REMARK  1 active torsions:
REMARK  status: ('A' for Active; 'I' for Inactive)
REMARK    1  A    between atoms: C9_13  and  C10_14 
ROOT
HETATM    1  C1  TDL     1      56.520  86.784 145.685  1.00  0.00     0.153 C 
HETATM    2  N1  TDL     1      57.617  87.273 146.500  1.00  0.00    -0.346 N 
HETATM    3  C2  TDL     1      58.943  87.175 145.912  1.00  0.00     0.228 C 
HETATM    4  C3  TDL     1      60.079  87.822 146.702  1.00  0.00     0.239 C 
HETATM    5  O1  TDL     1      61.067  88.282 146.131  1.00  0.00    -0.271 OA
HETATM    6  N2  TDL     1      59.990  87.636 148.087  1.00  0.00    -0.323 N 
HETATM    7  C4  TDL     1      58.638  87.817 148.680  1.00  0.00     0.185 C 
HETATM    8  C5  TDL     1      57.501  87.141 147.884  1.00  0.00     0.243 C 
HETATM    9  O2  TDL     1      56.479  86.715 148.420  1.00  0.00    -0.271 OA
HETATM   10  C6  TDL     1      58.529  87.356 150.152  1.00  0.00     0.076 C 
HETATM   11  C7  TDL     1      59.659  87.914 150.928  1.00  0.00    -0.018 A 
HETATM   12  C8  TDL     1      60.847  88.224 150.304  1.00  0.00     0.045 A 
HETATM   13  C9  TDL     1      61.183  88.067 148.853  1.00  0.00     0.172 C 
HETATM   14  N3  TDL     1      61.705  88.707 151.256  1.00  0.00    -0.356 N 
HETATM   15  C17 TDL     1      61.083  88.719 152.487  1.00  0.00     0.043 A 
HETATM   16  C18 TDL     1      61.567  89.125 153.736  1.00  0.00     0.030 A 
HETATM   17  C19 TDL     1      60.703  89.019 154.831  1.00  0.00     0.002 A 
HETATM   18  C20 TDL     1      59.408  88.527 154.680  1.00  0.00     0.001 A 
HETATM   19  C21 TDL     1      58.939  88.124 153.424  1.00  0.00     0.014 A 
HETATM   20  C22 TDL     1      59.791  88.221 152.306  1.00  0.00    -0.001 A 
HETATM   21  H15 TDL     1      62.662  88.992 151.096  1.00  0.00     0.166 HD
ENDROOT
BRANCH  13  22
HETATM   22  C10 TDL     1      62.330  87.073 148.670  1.00  0.00    -0.027 A 
HETATM   23  C11 TDL     1      63.664  87.516 148.588  1.00  0.00     0.049 A 
HETATM   24  C12 TDL     1      64.657  86.574 148.416  1.00  0.00     0.105 A 
HETATM   25  C13 TDL     1      64.374  85.232 148.326  1.00  0.00     0.105 A 
HETATM   26  O4  TDL     1      65.988  86.833 148.317  1.00  0.00    -0.323 OA
HETATM   27  C14 TDL     1      63.085  84.755 148.407  1.00  0.00     0.040 A 
HETATM   28  O3  TDL     1      65.493  84.477 148.158  1.00  0.00    -0.323 OA
HETATM   29  C15 TDL     1      62.056  85.686 148.581  1.00  0.00     0.012 A 
HETATM   30  C16 TDL     1      66.511  85.498 148.154  1.00  0.00     0.352 A 
ENDBRANCH  13  22
TORSDOF 1
ENDMDL
