MODEL 1
REMARK VINA RESULT:    -9.088      0.000      0.000
REMARK INTER + INTRA:         -10.727
REMARK INTER:                 -10.417
REMARK INTRA:                  -0.310
REMARK UNBOUND:                -0.310
REMARK  4 active torsions:
REMARK  status: ('A' for Active; 'I' for Inactive)
REMARK    1  A    between atoms: C3_3  and  O5_20 
REMARK    2  A    between atoms: C6_6  and  C7_7 
REMARK    3  A    between atoms: C11_12  and  O4_19 
REMARK    4  A    between atoms: C13_14  and  O3_18 
ROOT
HETATM    1  C7  API     1      14.450 -21.319 -62.581  1.00  0.00     0.090 A 
HETATM    2  C8  API     1      13.780 -20.668 -63.543  1.00  0.00     0.094 A 
HETATM    3  C9  API     1      14.537 -19.936 -64.568  1.00  0.00     0.190 A 
HETATM    4  O1  API     1      13.976 -19.320 -65.466  1.00  0.00    -0.287 OA
HETATM    5  C10 API     1      16.001 -19.971 -64.471  1.00  0.00     0.081 A 
HETATM    6  C11 API     1      16.815 -19.308 -65.395  1.00  0.00     0.085 A 
HETATM    7  C12 API     1      18.202 -19.363 -65.274  1.00  0.00     0.074 A 
HETATM    8  C13 API     1      18.764 -20.087 -64.226  1.00  0.00     0.071 A 
HETATM    9  C14 API     1      17.963 -20.752 -63.300  1.00  0.00     0.075 A 
HETATM   10  C15 API     1      16.575 -20.692 -63.426  1.00  0.00     0.095 A 
HETATM   11  O2  API     1      15.833 -21.367 -62.489  1.00  0.00    -0.309 OA
ENDROOT
BRANCH   1  12
HETATM   12  C6  API     1      13.749 -22.082 -61.529  1.00  0.00    -0.002 A 
HETATM   13  C1  API     1      12.399 -22.429 -61.697  1.00  0.00     0.017 A 
HETATM   14  C2  API     1      11.717 -23.160 -60.718  1.00  0.00     0.037 A 
HETATM   15  C3  API     1      12.390 -23.551 -59.566  1.00  0.00     0.065 A 
HETATM   16  C4  API     1      13.728 -23.228 -59.382  1.00  0.00     0.037 A 
HETATM   17  C5  API     1      14.407 -22.499 -60.360  1.00  0.00     0.017 A 
BRANCH  15  18
HETATM   18  O5  API     1      11.768 -24.264 -58.586  1.00  0.00    -0.361 OA
HETATM   19  H10 API     1      10.923 -23.832 -58.374  1.00  0.00     0.217 HD
ENDBRANCH  15  18
ENDBRANCH   1  12
BRANCH   6  20
HETATM   20  O4  API     1      16.315 -18.584 -66.444  1.00  0.00    -0.360 OA
HETATM   21  H9  API     1      15.843 -17.801 -66.079  1.00  0.00     0.217 HD
ENDBRANCH   6  20
BRANCH   8  22
HETATM   22  O3  API     1      20.115 -20.170 -64.067  1.00  0.00    -0.361 OA
HETATM   23  H8  API     1      20.419 -19.399 -63.559  1.00  0.00     0.217 HD
ENDBRANCH   8  22
TORSDOF 4
ENDMDL
