MODEL 1
REMARK VINA RESULT:    -9.548      0.000      0.000
REMARK INTER + INTRA:         -15.123
REMARK INTER:                 -13.455
REMARK INTRA:                  -1.669
REMARK UNBOUND:                -1.669
REMARK  10 active torsions:
REMARK  status: ('A' for Active; 'I' for Inactive)
REMARK    1  A    between atoms: C4_4  and  C7_7 
REMARK    2  A    between atoms: C11_12  and  O11_32 
REMARK    3  A    between atoms: C12_13  and  O10_31 
REMARK    4  A    between atoms: C13_14  and  O3_18 
REMARK    5  A    between atoms: O3_18  and  C16_19 
REMARK    6  A    between atoms: C17_20  and  O9_30 
REMARK    7  A    between atoms: C18_21  and  O8_29 
REMARK    8  A    between atoms: C19_22  and  O7_28 
REMARK    9  A    between atoms: C20_23  and  C21_25 
REMARK   10  A    between atoms: C21_25  and  O6_27 
ROOT
HETATM    1  C7  BAI     1     -25.034  20.512 -35.757  1.00  0.00     0.090 A 
HETATM    2  C8  BAI     1     -24.111  21.453 -36.007  1.00  0.00     0.094 A 
HETATM    3  C9  BAI     1     -22.807  21.365 -35.338  1.00  0.00     0.190 A 
HETATM    4  O1  BAI     1     -21.922  22.192 -35.526  1.00  0.00    -0.287 OA
HETATM    5  C10 BAI     1     -22.599  20.239 -34.425  1.00  0.00     0.084 A 
HETATM    6  C11 BAI     1     -21.397  20.067 -33.736  1.00  0.00     0.118 A 
HETATM    7  C12 BAI     1     -21.237  18.982 -32.872  1.00  0.00     0.134 A 
HETATM    8  C13 BAI     1     -22.270  18.058 -32.701  1.00  0.00     0.110 A 
HETATM    9  C14 BAI     1     -23.479  18.249 -33.376  1.00  0.00     0.078 A 
HETATM   10  C15 BAI     1     -23.639  19.332 -34.243  1.00  0.00     0.096 A 
HETATM   11  O2  BAI     1     -24.848  19.451 -34.882  1.00  0.00    -0.309 OA
ENDROOT
BRANCH   8  12
HETATM   12  O3  BAI     1     -22.231  16.993 -31.845  1.00  0.00    -0.315 OA
BRANCH  12  13
HETATM   13  C16 BAI     1     -22.363  17.333 -30.459  1.00  0.00     0.299 C 
HETATM   14  C17 BAI     1     -23.302  16.300 -29.793  1.00  0.00     0.205 C 
HETATM   15  C18 BAI     1     -22.565  15.520 -28.712  1.00  0.00     0.183 C 
HETATM   16  C19 BAI     1     -21.252  14.980 -29.271  1.00  0.00     0.189 C 
HETATM   17  C20 BAI     1     -20.367  16.136 -29.771  1.00  0.00     0.253 C 
HETATM   18  O4  BAI     1     -21.073  17.383 -29.826  1.00  0.00    -0.340 OA
BRANCH  14  19
HETATM   19  O9  BAI     1     -24.449  16.920 -29.181  1.00  0.00    -0.388 OA
HETATM   20  H16 BAI     1     -25.217  16.403 -29.501  1.00  0.00     0.210 HD
ENDBRANCH  14  19
BRANCH  15  21
HETATM   21  O8  BAI     1     -23.374  14.417 -28.264  1.00  0.00    -0.390 OA
HETATM   22  H15 BAI     1     -23.751  14.715 -27.412  1.00  0.00     0.210 HD
ENDBRANCH  15  21
BRANCH  16  23
HETATM   23  O7  BAI     1     -20.590  14.248 -28.225  1.00  0.00    -0.390 OA
HETATM   24  H14 BAI     1     -19.875  13.754 -28.677  1.00  0.00     0.210 HD
ENDBRANCH  16  23
BRANCH  17  25
HETATM   25  C21 BAI     1     -19.626  15.808 -31.077  1.00  0.00     0.172 C 
HETATM   26  O5  BAI     1     -18.584  16.311 -31.474  1.00  0.00    -0.648 OA
BRANCH  25  27
HETATM   27  O6  BAI     1     -20.182  14.809 -31.790  1.00  0.00    -0.774 OA
HETATM   28  H13 BAI     1     -19.641  14.767 -32.606  1.00  0.00     0.167 HD
ENDBRANCH  25  27
ENDBRANCH  17  25
ENDBRANCH  12  13
ENDBRANCH   8  12
BRANCH   7  29
HETATM   29  O10 BAI     1     -20.049  18.873 -32.193  1.00  0.00    -0.356 OA
HETATM   30  H17 BAI     1     -19.385  18.739 -32.907  1.00  0.00     0.218 HD
ENDBRANCH   7  29
BRANCH   6  31
HETATM   31  O11 BAI     1     -20.332  20.928 -33.846  1.00  0.00    -0.357 OA
HETATM   32  H18 BAI     1     -20.223  21.380 -32.975  1.00  0.00     0.217 HD
ENDBRANCH   6  31
BRANCH   1  33
HETATM   33  C4  BAI     1     -26.368  20.547 -36.388  1.00  0.00    -0.002 A 
HETATM   34  C3  BAI     1     -26.684  21.479 -37.389  1.00  0.00     0.014 A 
HETATM   35  C2  BAI     1     -27.951  21.491 -37.980  1.00  0.00     0.001 A 
HETATM   36  C1  BAI     1     -28.915  20.568 -37.583  1.00  0.00     0.000 A 
HETATM   37  C6  BAI     1     -28.614  19.630 -36.599  1.00  0.00     0.001 A 
HETATM   38  C5  BAI     1     -27.348  19.617 -36.008  1.00  0.00     0.014 A 
ENDBRANCH   1  33
TORSDOF 10
ENDMDL
