MODEL 1
REMARK VINA RESULT:    -9.110      0.000      0.000
REMARK INTER + INTRA:         -10.152
REMARK INTER:                 -10.175
REMARK INTRA:                   0.023
REMARK UNBOUND:                 0.023
REMARK  2 active torsions:
REMARK  status: ('A' for Active; 'I' for Inactive)
REMARK    1  A    between atoms: O1_2  and  C2_3 
REMARK    2  A    between atoms: C3_4  and  O4_24 
ROOT
HETATM    1  C2  BER     1     -20.141 -56.200  -1.713  1.00  0.00     0.102 A 
HETATM    2  C3  BER     1     -19.936 -55.761  -3.035  1.00  0.00     0.114 A 
HETATM    3  C4  BER     1     -21.040 -55.393  -3.849  1.00  0.00     0.026 A 
HETATM    4  C5  BER     1     -20.894 -55.002  -5.184  1.00  0.00     0.106 A 
HETATM    5  N1  BER     1     -21.949 -54.654  -5.957  1.00  0.00    -0.355 N 
HETATM    6  C6  BER     1     -23.216 -54.643  -5.452  1.00  0.00     0.046 A 
HETATM    7  C7  BER     1     -23.416 -55.035  -4.121  1.00  0.00     0.043 A 
HETATM    8  C8  BER     1     -22.337 -55.412  -3.315  1.00  0.00    -0.019 A 
HETATM    9  C9  BER     1     -22.526 -55.812  -1.987  1.00  0.00     0.015 A 
HETATM   10  C10 BER     1     -21.441 -56.206  -1.199  1.00  0.00     0.040 A 
HETATM   11  C11 BER     1     -24.300 -54.250  -6.377  1.00  0.00    -0.000 A 
HETATM   12  C12 BER     1     -25.556 -53.807  -5.918  1.00  0.00     0.054 A 
HETATM   13  C13 BER     1     -26.534 -53.495  -6.842  1.00  0.00     0.105 A 
HETATM   14  C14 BER     1     -26.322 -53.603  -8.191  1.00  0.00     0.105 A 
HETATM   15  C15 BER     1     -25.114 -54.020  -8.698  1.00  0.00     0.047 A 
HETATM   16  C16 BER     1     -24.093 -54.329  -7.784  1.00  0.00    -0.041 A 
HETATM   17  C17 BER     1     -22.748 -54.779  -8.283  1.00  0.00     0.060 C 
HETATM   18  C18 BER     1     -21.680 -54.229  -7.356  1.00  0.00     0.133 C 
HETATM   19  O2  BER     1     -27.413 -53.254  -8.920  1.00  0.00    -0.323 OA
HETATM   20  C19 BER     1     -28.347 -52.914  -7.871  1.00  0.00     0.352 A 
HETATM   21  O3  BER     1     -27.788 -53.061  -6.547  1.00  0.00    -0.323 OA
ENDROOT
BRANCH   1  22
HETATM   22  O1  BER     1     -19.051 -56.628  -1.008  1.00  0.00    -0.353 OA
HETATM   23  C1  BER     1     -19.262 -57.297   0.231  1.00  0.00     0.210 C 
ENDBRANCH   1  22
BRANCH   2  24
HETATM   24  O4  BER     1     -18.718 -55.700  -3.677  1.00  0.00    -0.352 OA
HETATM   25  C20 BER     1     -18.204 -56.923  -4.204  1.00  0.00     0.210 C 
ENDBRANCH   2  24
TORSDOF 2
ENDMDL
