MODEL 1
REMARK VINA RESULT:    -8.270      0.000      0.000
REMARK INTER + INTRA:         -10.065
REMARK INTER:                  -9.963
REMARK INTRA:                  -0.103
REMARK UNBOUND:                -0.103
REMARK  6 active torsions:
REMARK  status: ('A' for Active; 'I' for Inactive)
REMARK    1  A    between atoms: C2_2  and  O6_21 
REMARK    2  A    between atoms: C3_3  and  C10_13 
REMARK    3  A    between atoms: C6_7  and  O3_12 
REMARK    4  A    between atoms: C8_9  and  O2_11 
REMARK    5  A    between atoms: C12_15  and  O5_20 
REMARK    6  A    between atoms: C13_16  and  O4_19 
ROOT
HETATM    1  C1  CAT     1     -39.490  14.337 -43.200  1.00  0.00     0.079 C 
HETATM    2  C2  CAT     1     -39.453  15.601 -42.344  1.00  0.00     0.156 C 
HETATM    3  C3  CAT     1     -38.443  15.384 -41.201  1.00  0.00     0.191 C 
HETATM    4  O1  CAT     1     -38.827  14.291 -40.357  1.00  0.00    -0.338 OA
HETATM    5  C4  CAT     1     -39.176  13.141 -41.011  1.00  0.00     0.081 A 
HETATM    6  C5  CAT     1     -39.222  11.994 -40.216  1.00  0.00     0.074 A 
HETATM    7  C6  CAT     1     -39.565  10.775 -40.784  1.00  0.00     0.071 A 
HETATM    8  C7  CAT     1     -39.864  10.684 -42.137  1.00  0.00     0.073 A 
HETATM    9  C8  CAT     1     -39.826  11.835 -42.923  1.00  0.00     0.077 A 
HETATM   10  C9  CAT     1     -39.506  13.085 -42.373  1.00  0.00     0.011 A 
ENDROOT
BRANCH   3  11
HETATM   11  C10 CAT     1     -38.325  16.621 -40.323  1.00  0.00    -0.024 A 
HETATM   12  C11 CAT     1     -37.178  16.849 -39.544  1.00  0.00     0.049 A 
HETATM   13  C12 CAT     1     -37.109  17.970 -38.729  1.00  0.00     0.099 A 
HETATM   14  C13 CAT     1     -38.162  18.879 -38.674  1.00  0.00     0.098 A 
HETATM   15  C14 CAT     1     -39.305  18.675 -39.435  1.00  0.00     0.040 A 
HETATM   16  C15 CAT     1     -39.386  17.545 -40.256  1.00  0.00     0.013 A 
BRANCH  13  17
HETATM   17  O5  CAT     1     -35.991  18.174 -37.973  1.00  0.00    -0.358 OA
HETATM   18  H13 CAT     1     -35.697  19.077 -38.209  1.00  0.00     0.217 HD
ENDBRANCH  13  17
BRANCH  14  19
HETATM   19  O4  CAT     1     -38.024  19.962 -37.850  1.00  0.00    -0.358 OA
HETATM   20  H12 CAT     1     -38.008  19.643 -36.931  1.00  0.00     0.217 HD
ENDBRANCH  14  19
ENDBRANCH   3  11
BRANCH   2  21
HETATM   21  O6  CAT     1     -39.094  16.696 -43.193  1.00  0.00    -0.392 OA
HETATM   22  H14 CAT     1     -39.903  16.966 -43.665  1.00  0.00     0.210 HD
ENDBRANCH   2  21
BRANCH   9  23
HETATM   23  O2  CAT     1     -40.120  11.657 -44.247  1.00  0.00    -0.360 OA
HETATM   24  H7  CAT     1     -39.358  11.908 -44.791  1.00  0.00     0.217 HD
ENDBRANCH   9  23
BRANCH   7  25
HETATM   25  O3  CAT     1     -39.592   9.678 -39.975  1.00  0.00    -0.361 OA
HETATM   26  H8  CAT     1     -39.048   8.982 -40.379  1.00  0.00     0.217 HD
ENDBRANCH   7  25
TORSDOF 6
ENDMDL
