MODEL 1
REMARK VINA RESULT:    -8.278      0.000      0.000
REMARK INTER + INTRA:         -13.530
REMARK INTER:                 -12.633
REMARK INTRA:                  -0.897
REMARK UNBOUND:                -0.897
REMARK  10 active torsions:
REMARK  status: ('A' for Active; 'I' for Inactive)
REMARK    1  A    between atoms: O1_2  and  C2_3 
REMARK    2  A    between atoms: C3_4  and  O6_27 
REMARK    3  A    between atoms: C6_7  and  C8_9 
REMARK    4  A    between atoms: C9_10  and  C10_11 
REMARK    5  A    between atoms: C10_11  and  C11_13 
REMARK    6  A    between atoms: C11_13  and  C12_14 
REMARK    7  A    between atoms: C12_14  and  C13_16 
REMARK    8  A    between atoms: C14_17  and  C15_18 
REMARK    9  A    between atoms: C17_20  and  O5_25 
REMARK   10  A    between atoms: C18_21  and  O4_24 
ROOT
HETATM    1  C11 CUR     1     -60.243 -95.610 -35.788  1.00  0.00     0.165 C 
ENDROOT
BRANCH   1   2
HETATM    2  C10 CUR     1     -59.662 -94.232 -35.986  1.00  0.00     0.156 C 
HETATM    3  O2  CUR     1     -58.877 -93.716 -35.191  1.00  0.00    -0.293 OA
BRANCH   2   4
HETATM    4  C9  CUR     1     -60.067 -93.428 -37.174  1.00  0.00     0.051 C 
HETATM    5  C8  CUR     1     -59.556 -93.573 -38.406  1.00  0.00     0.015 C 
BRANCH   5   6
HETATM    6  C6  CUR     1     -59.994 -92.764 -39.555  1.00  0.00    -0.033 A 
HETATM    7  C5  CUR     1     -61.251 -92.146 -39.588  1.00  0.00     0.014 A 
HETATM    8  C4  CUR     1     -61.624 -91.360 -40.680  1.00  0.00     0.040 A 
HETATM    9  C3  CUR     1     -60.735 -91.184 -41.738  1.00  0.00     0.099 A 
HETATM   10  C2  CUR     1     -59.466 -91.780 -41.722  1.00  0.00     0.102 A 
HETATM   11  C7  CUR     1     -59.103 -92.563 -40.621  1.00  0.00     0.051 A 
BRANCH   9  12
HETATM   12  O6  CUR     1     -61.098 -90.414 -42.810  1.00  0.00    -0.358 OA
HETATM   13  H20 CUR     1     -61.043 -89.478 -42.566  1.00  0.00     0.217 HD
ENDBRANCH   9  12
BRANCH  10  14
HETATM   14  O1  CUR     1     -58.671 -91.535 -42.811  1.00  0.00    -0.353 OA
HETATM   15  C1  CUR     1     -57.704 -90.501 -42.703  1.00  0.00     0.210 C 
ENDBRANCH  10  14
ENDBRANCH   5   6
ENDBRANCH   2   4
ENDBRANCH   1   2
BRANCH   1  16
HETATM   16  C12 CUR     1     -60.745 -95.905 -34.397  1.00  0.00     0.156 C 
HETATM   17  O3  CUR     1     -60.036 -96.492 -33.580  1.00  0.00    -0.293 OA
BRANCH  16  18
HETATM   18  C13 CUR     1     -62.154 -95.539 -34.070  1.00  0.00     0.051 C 
HETATM   19  C14 CUR     1     -63.086 -95.496 -35.033  1.00  0.00     0.015 C 
BRANCH  19  20
HETATM   20  C15 CUR     1     -64.490 -95.155 -34.774  1.00  0.00    -0.033 A 
HETATM   21  C16 CUR     1     -65.131 -94.105 -35.455  1.00  0.00     0.051 A 
HETATM   22  C17 CUR     1     -66.462 -93.788 -35.173  1.00  0.00     0.102 A 
HETATM   23  C18 CUR     1     -67.138 -94.528 -34.197  1.00  0.00     0.099 A 
HETATM   24  C19 CUR     1     -66.516 -95.557 -33.502  1.00  0.00     0.040 A 
HETATM   25  C20 CUR     1     -65.186 -95.865 -33.787  1.00  0.00     0.014 A 
BRANCH  22  26
HETATM   26  O5  CUR     1     -67.203 -92.798 -35.766  1.00  0.00    -0.353 OA
HETATM   27  C21 CUR     1     -66.477 -91.786 -36.455  1.00  0.00     0.210 C 
ENDBRANCH  22  26
BRANCH  23  28
HETATM   28  O4  CUR     1     -68.443 -94.244 -33.899  1.00  0.00    -0.358 OA
HETATM   29  H16 CUR     1     -68.666 -94.837 -33.156  1.00  0.00     0.217 HD
ENDBRANCH  23  28
ENDBRANCH  19  20
ENDBRANCH  16  18
ENDBRANCH   1  16
TORSDOF 10
ENDMDL
