MODEL 1
REMARK VINA RESULT:    -6.633      0.000      0.000
REMARK INTER + INTRA:          -7.847
REMARK INTER:                  -7.796
REMARK INTRA:                  -0.051
REMARK UNBOUND:                -0.051
REMARK  5 active torsions:
REMARK  status: ('A' for Active; 'I' for Inactive)
REMARK    1  A    between atoms: C2_2  and  C7_10 
REMARK    2  A    between atoms: C4_4  and  O3_9 
REMARK    3  A    between atoms: C5_5  and  O2_8 
REMARK    4  A    between atoms: C6_6  and  O1_7 
REMARK    5  A    between atoms: C7_10  and  O5_12 
ROOT
HETATM    1  C1  GAL     1     -62.286 -77.753 -33.462  1.00  0.00     0.057 A 
HETATM    2  C2  GAL     1     -61.883 -77.864 -34.805  1.00  0.00     0.043 A 
HETATM    3  C3  GAL     1     -61.274 -79.041 -35.267  1.00  0.00     0.057 A 
HETATM    4  C4  GAL     1     -61.074 -80.094 -34.385  1.00  0.00     0.102 A 
HETATM    5  C5  GAL     1     -61.472 -79.988 -33.059  1.00  0.00     0.132 A 
HETATM    6  C6  GAL     1     -62.076 -78.824 -32.598  1.00  0.00     0.102 A 
ENDROOT
BRANCH   2   7
HETATM    7  C7  GAL     1     -62.082 -76.758 -35.772  1.00  0.00     0.176 C 
HETATM    8  O4  GAL     1     -61.702 -75.610 -35.639  1.00  0.00    -0.646 OA
BRANCH   7   9
HETATM    9  O5  GAL     1     -62.756 -77.145 -36.869  1.00  0.00    -0.773 OA
HETATM   10  H6  GAL     1     -62.046 -77.413 -37.491  1.00  0.00     0.167 HD
ENDBRANCH   7   9
ENDBRANCH   2   7
BRANCH   6  11
HETATM   11  O1  GAL     1     -62.446 -78.777 -31.283  1.00  0.00    -0.358 OA
HETATM   12  H3  GAL     1     -62.487 -79.688 -30.941  1.00  0.00     0.217 HD
ENDBRANCH   6  11
BRANCH   4  13
HETATM   13  O3  GAL     1     -60.482 -81.240 -34.830  1.00  0.00    -0.358 OA
HETATM   14  H5  GAL     1     -59.521 -81.070 -34.758  1.00  0.00     0.217 HD
ENDBRANCH   4  13
BRANCH   5  15
HETATM   15  O2  GAL     1     -61.262 -81.044 -32.215  1.00  0.00    -0.356 OA
HETATM   16  H4  GAL     1     -62.122 -81.513 -32.194  1.00  0.00     0.218 HD
ENDBRANCH   5  15
TORSDOF 5
ENDMDL
