MODEL 1
REMARK VINA RESULT:    -9.848      0.000      0.000
REMARK INTER + INTRA:         -12.823
REMARK INTER:                 -12.726
REMARK INTRA:                  -0.097
REMARK UNBOUND:                -0.097
REMARK  6 active torsions:
REMARK  status: ('A' for Active; 'I' for Inactive)
REMARK    1  A    between atoms: C3_3  and  C4_4 
REMARK    2  A    between atoms: C4_4  and  C5_5 
REMARK    3  A    between atoms: C5_5  and  C6_6 
REMARK    4  A    between atoms: C6_6  and  C8_8 
REMARK    5  A    between atoms: C6_6  and  O2_31 
REMARK    6  A    between atoms: C23_23  and  O1_27 
ROOT
HETATM    1  C8  GIN     1     -74.177 -78.595 -37.880  1.00  0.00     0.024 C 
HETATM    2  C9  GIN     1     -75.690 -78.754 -38.050  1.00  0.00     0.009 C 
HETATM    3  C10 GIN     1     -76.063 -77.566 -38.930  1.00  0.00     0.011 C 
HETATM    4  C11 GIN     1     -75.142 -76.392 -38.481  1.00  0.00    -0.032 C 
HETATM    5  C12 GIN     1     -74.042 -77.072 -37.572  1.00  0.00     0.001 C 
HETATM    6  C13 GIN     1     -74.143 -76.657 -36.108  1.00  0.00     0.006 C 
HETATM    7  C14 GIN     1     -74.090 -75.139 -35.924  1.00  0.00     0.006 C 
HETATM    8  C15 GIN     1     -74.876 -74.315 -36.978  1.00  0.00     0.003 C 
HETATM    9  C16 GIN     1     -75.937 -75.188 -37.741  1.00  0.00    -0.032 C 
HETATM   10  C17 GIN     1     -76.672 -74.308 -38.795  1.00  0.00     0.011 C 
HETATM   11  C18 GIN     1     -77.176 -72.957 -38.278  1.00  0.00     0.007 C 
HETATM   12  C19 GIN     1     -76.028 -72.132 -37.662  1.00  0.00     0.004 C 
HETATM   13  C20 GIN     1     -75.359 -72.885 -36.459  1.00  0.00    -0.035 C 
HETATM   14  C21 GIN     1     -74.100 -72.083 -35.981  1.00  0.00     0.012 C 
HETATM   15  C22 GIN     1     -74.011 -70.638 -36.485  1.00  0.00     0.033 C 
HETATM   16  C23 GIN     1     -75.355 -69.919 -36.479  1.00  0.00     0.126 C 
HETATM   17  C24 GIN     1     -76.397 -70.615 -37.411  1.00  0.00    -0.017 C 
HETATM   18  C25 GIN     1     -77.835 -70.409 -36.888  1.00  0.00     0.018 C 
HETATM   19  C26 GIN     1     -76.329 -69.886 -38.785  1.00  0.00     0.018 C 
HETATM   20  C27 GIN     1     -76.326 -73.005 -35.256  1.00  0.00     0.016 C 
HETATM   21  C28 GIN     1     -77.021 -75.714 -36.745  1.00  0.00     0.016 C 
HETATM   22  C29 GIN     1     -74.400 -75.916 -39.769  1.00  0.00     0.016 C 
ENDROOT
BRANCH   1  23
HETATM   23  C6  GIN     1     -73.513 -79.633 -36.937  1.00  0.00     0.058 C 
HETATM   24  C7  GIN     1     -74.259 -79.713 -35.597  1.00  0.00     0.046 C 
BRANCH  23  25
HETATM   25  C5  GIN     1     -71.995 -79.372 -36.725  1.00  0.00     0.041 C 
BRANCH  25  26
HETATM   26  C4  GIN     1     -71.049 -80.573 -36.597  1.00  0.00     0.030 C 
BRANCH  26  27
HETATM   27  C3  GIN     1     -70.532 -81.125 -37.893  1.00  0.00    -0.025 C 
HETATM   28  C2  GIN     1     -70.526 -82.414 -38.284  1.00  0.00    -0.091 C 
HETATM   29  C1  GIN     1     -69.992 -82.808 -39.636  1.00  0.00     0.042 C 
HETATM   30  C30 GIN     1     -71.021 -83.567 -37.454  1.00  0.00     0.042 C 
ENDBRANCH  26  27
ENDBRANCH  25  26
ENDBRANCH  23  25
BRANCH  23  31
HETATM   31  O2  GIN     1     -73.589 -80.933 -37.542  1.00  0.00    -0.390 OA
HETATM   32  H49 GIN     1     -74.505 -81.248 -37.463  1.00  0.00     0.210 HD
ENDBRANCH  23  31
ENDBRANCH   1  23
BRANCH  16  33
HETATM   33  O1  GIN     1     -75.823 -69.816 -35.136  1.00  0.00    -0.395 OA
HETATM   34  H39 GIN     1     -75.440 -69.011 -34.749  1.00  0.00     0.210 HD
ENDBRANCH  16  33
TORSDOF 6
ENDMDL
