MODEL 1
REMARK VINA RESULT:    -9.768      0.000      0.000
REMARK INTER + INTRA:         -18.447
REMARK INTER:                 -16.049
REMARK INTRA:                  -2.398
REMARK UNBOUND:                -2.398
REMARK  15 active torsions:
REMARK  status: ('A' for Active; 'I' for Inactive)
REMARK    1  A    between atoms: C5_5  and  C42_56 
REMARK    2  A    between atoms: C15_16  and  O2_29 
REMARK    3  A    between atoms: O2_29  and  C28_30 
REMARK    4  A    between atoms: C29_31  and  O8_41 
REMARK    5  A    between atoms: C30_32  and  O7_40 
REMARK    6  A    between atoms: C31_33  and  O6_39 
REMARK    7  A    between atoms: C32_34  and  C33_36 
REMARK    8  A    between atoms: C33_36  and  O5_38 
REMARK    9  A    between atoms: O8_41  and  C34_42 
REMARK   10  A    between atoms: C35_43  and  O14_53 
REMARK   11  A    between atoms: C36_44  and  O13_52 
REMARK   12  A    between atoms: C37_45  and  O12_51 
REMARK   13  A    between atoms: C38_46  and  C39_48 
REMARK   14  A    between atoms: C39_48  and  O11_50 
REMARK   15  A    between atoms: C42_56  and  O16_58 
ROOT
HETATM    1  C1  GRA     1     -21.086  20.186 -31.270  1.00  0.00     0.016 C 
HETATM    2  C2  GRA     1     -20.483  18.752 -31.336  1.00  0.00    -0.036 C 
HETATM    3  C3  GRA     1     -21.115  18.018 -32.547  1.00  0.00     0.011 C 
HETATM    4  C4  GRA     1     -22.606  17.720 -32.396  1.00  0.00     0.021 C 
HETATM    5  C5  GRA     1     -22.948  16.955 -31.104  1.00  0.00     0.042 C 
HETATM    6  C6  GRA     1     -22.315  17.681 -29.891  1.00  0.00     0.030 C 
HETATM    7  C7  GRA     1     -20.796  18.001 -29.993  1.00  0.00     0.025 C 
HETATM    8  C8  GRA     1     -19.824  16.866 -29.595  1.00  0.00    -0.062 C 
HETATM    9  C9  GRA     1     -20.190  15.869 -28.763  1.00  0.00     0.054 C 
HETATM   10  C10 GRA     1     -19.242  14.895 -28.153  1.00  0.00     0.155 C 
HETATM   11  O1  GRA     1     -19.732  13.965 -27.515  1.00  0.00    -0.293 OA
HETATM   12  C11 GRA     1     -17.733  15.075 -28.379  1.00  0.00     0.077 C 
HETATM   13  C12 GRA     1     -16.778  14.376 -27.316  1.00  0.00    -0.028 C 
HETATM   14  C13 GRA     1     -17.031  12.838 -27.316  1.00  0.00     0.013 C 
HETATM   15  C14 GRA     1     -15.989  12.026 -26.556  1.00  0.00     0.034 C 
HETATM   16  C15 GRA     1     -14.564  12.264 -27.050  1.00  0.00     0.133 C 
HETATM   17  C16 GRA     1     -14.179  13.778 -27.041  1.00  0.00    -0.017 C 
HETATM   18  C17 GRA     1     -15.293  14.586 -27.812  1.00  0.00     0.005 C 
HETATM   19  C18 GRA     1     -14.974  16.078 -28.026  1.00  0.00     0.007 C 
HETATM   20  C19 GRA     1     -15.906  16.704 -29.070  1.00  0.00     0.011 C 
HETATM   21  C20 GRA     1     -17.417  16.579 -28.737  1.00  0.00    -0.021 C 
HETATM   22  C21 GRA     1     -18.347  17.007 -29.997  1.00  0.00    -0.012 C 
HETATM   23  C22 GRA     1     -18.072  18.468 -30.442  1.00  0.00     0.015 C 
HETATM   24  C23 GRA     1     -18.960  18.935 -31.594  1.00  0.00     0.011 C 
HETATM   25  C24 GRA     1     -18.106  16.080 -31.228  1.00  0.00     0.021 C 
HETATM   26  C25 GRA     1     -17.691  17.541 -27.539  1.00  0.00     0.017 C 
HETATM   27  C26 GRA     1     -12.827  13.907 -27.798  1.00  0.00     0.018 C 
HETATM   28  C27 GRA     1     -13.922  14.290 -25.610  1.00  0.00     0.018 C 
HETATM   29  C40 GRA     1     -17.051  14.906 -25.890  1.00  0.00     0.016 C 
HETATM   30  C41 GRA     1     -22.505  15.487 -31.199  1.00  0.00     0.026 C 
ENDROOT
BRANCH  16  31
HETATM   31  O2  GRA     1     -13.657  11.515 -26.223  1.00  0.00    -0.352 OA
BRANCH  31  32
HETATM   32  C28 GRA     1     -13.065  10.393 -26.907  1.00  0.00     0.293 C 
HETATM   33  C29 GRA     1     -13.428   9.082 -26.182  1.00  0.00     0.211 C 
HETATM   34  C30 GRA     1     -12.967   9.171 -24.718  1.00  0.00     0.183 C 
HETATM   35  C31 GRA     1     -11.669   9.982 -24.552  1.00  0.00     0.189 C 
HETATM   36  C32 GRA     1     -10.886  10.117 -25.866  1.00  0.00     0.253 C 
HETATM   37  O3  GRA     1     -11.658  10.624 -26.962  1.00  0.00    -0.340 OA
BRANCH  33  38
HETATM   38  O8  GRA     1     -14.850   8.842 -26.180  1.00  0.00    -0.346 OA
BRANCH  38  39
HETATM   39  C34 GRA     1     -15.246   7.826 -27.114  1.00  0.00     0.293 C 
HETATM   40  C35 GRA     1     -16.624   7.329 -26.659  1.00  0.00     0.204 C 
HETATM   41  C36 GRA     1     -17.054   6.139 -27.520  1.00  0.00     0.183 C 
HETATM   42  C37 GRA     1     -16.463   6.182 -28.938  1.00  0.00     0.189 C 
HETATM   43  C38 GRA     1     -16.077   7.605 -29.373  1.00  0.00     0.253 C 
HETATM   44  O9  GRA     1     -15.299   8.356 -28.430  1.00  0.00    -0.340 OA
BRANCH  40  45
HETATM   45  O14 GRA     1     -16.625   6.929 -25.278  1.00  0.00    -0.388 OA
HETATM   46  H55 GRA     1     -17.009   7.691 -24.798  1.00  0.00     0.210 HD
ENDBRANCH  40  45
BRANCH  41  47
HETATM   47  O13 GRA     1     -18.485   6.091 -27.586  1.00  0.00    -0.390 OA
HETATM   48  H54 GRA     1     -18.715   5.150 -27.724  1.00  0.00     0.210 HD
ENDBRANCH  41  47
BRANCH  42  49
HETATM   49  O12 GRA     1     -15.275   5.369 -28.966  1.00  0.00    -0.390 OA
HETATM   50  H53 GRA     1     -14.679   5.753 -29.636  1.00  0.00     0.210 HD
ENDBRANCH  42  49
BRANCH  43  51
HETATM   51  C39 GRA     1     -17.339   8.320 -29.859  1.00  0.00     0.172 C 
HETATM   52  O10 GRA     1     -18.346   7.772 -30.281  1.00  0.00    -0.648 OA
BRANCH  51  53
HETATM   53  O11 GRA     1     -17.285   9.662 -29.763  1.00  0.00    -0.774 OA
HETATM   54  H52 GRA     1     -16.421   9.857 -29.340  1.00  0.00     0.167 HD
ENDBRANCH  51  53
ENDBRANCH  43  51
ENDBRANCH  38  39
ENDBRANCH  33  38
BRANCH  34  55
HETATM   55  O7  GRA     1     -12.769   7.833 -24.226  1.00  0.00    -0.390 OA
HETATM   56  H46 GRA     1     -12.101   7.417 -24.803  1.00  0.00     0.210 HD
ENDBRANCH  34  55
BRANCH  35  57
HETATM   57  O6  GRA     1     -11.993  11.290 -24.050  1.00  0.00    -0.390 OA
HETATM   58  H45 GRA     1     -11.140  11.759 -23.922  1.00  0.00     0.210 HD
ENDBRANCH  35  57
BRANCH  36  59
HETATM   59  C33 GRA     1     -10.205   8.797 -26.225  1.00  0.00     0.172 C 
HETATM   60  O4  GRA     1     -10.034   7.839 -25.487  1.00  0.00    -0.648 OA
BRANCH  59  61
HETATM   61  O5  GRA     1      -9.792   8.738 -27.508  1.00  0.00    -0.774 OA
HETATM   62  H44 GRA     1     -10.620   8.835 -28.027  1.00  0.00     0.167 HD
ENDBRANCH  59  61
ENDBRANCH  36  59
ENDBRANCH  31  32
ENDBRANCH  16  31
BRANCH   5  63
HETATM   63  C42 GRA     1     -24.465  16.943 -30.910  1.00  0.00     0.148 C 
HETATM   64  O15 GRA     1     -25.292  17.526 -31.592  1.00  0.00    -0.649 OA
BRANCH  63  65
HETATM   65  O16 GRA     1     -24.867  16.233 -29.838  1.00  0.00    -0.776 OA
HETATM   66  H62 GRA     1     -25.781  15.960 -30.065  1.00  0.00     0.167 HD
ENDBRANCH  63  65
ENDBRANCH   5  63
TORSDOF 15
ENDMDL
