MODEL 1
REMARK VINA RESULT:    -8.560      0.000      0.000
REMARK INTER + INTRA:         -12.595
REMARK INTER:                 -11.563
REMARK INTRA:                  -1.032
REMARK UNBOUND:                -1.032
REMARK  10 active torsions:
REMARK  status: ('A' for Active; 'I' for Inactive)
REMARK    1  A    between atoms: C5_5  and  O2_8 
REMARK    2  A    between atoms: C6_6  and  O1_7 
REMARK    3  A    between atoms: C10_14  and  O11_30 
REMARK    4  A    between atoms: C11_15  and  C14_19 
REMARK    5  A    between atoms: C12_16  and  O5_18 
REMARK    6  A    between atoms: C15_20  and  O10_29 
REMARK    7  A    between atoms: C16_21  and  O9_28 
REMARK    8  A    between atoms: C17_22  and  O8_27 
REMARK    9  A    between atoms: C18_23  and  C19_25 
REMARK   10  A    between atoms: C19_25  and  O7_26 
ROOT
HETATM    1  C1  MAN     1     -27.693  19.627 -36.667  1.00  0.00     0.057 A 
HETATM    2  C2  MAN     1     -26.445  20.111 -36.265  1.00  0.00     0.052 A 
HETATM    3  C3  MAN     1     -25.957  21.327 -36.749  1.00  0.00     0.093 A 
HETATM    4  C4  MAN     1     -26.717  22.067 -37.657  1.00  0.00     0.077 A 
HETATM    5  C5  MAN     1     -27.950  21.577 -38.067  1.00  0.00     0.101 A 
HETATM    6  C6  MAN     1     -28.445  20.379 -37.556  1.00  0.00     0.099 A 
HETATM    7  O3  MAN     1     -24.743  21.858 -36.389  1.00  0.00    -0.309 OA
HETATM    8  C7  MAN     1     -23.963  21.160 -35.500  1.00  0.00     0.095 A 
HETATM    9  C8  MAN     1     -24.319  19.938 -34.937  1.00  0.00     0.083 A 
HETATM   10  C9  MAN     1     -25.617  19.357 -35.316  1.00  0.00     0.200 A 
HETATM   11  O4  MAN     1     -25.976  18.281 -34.851  1.00  0.00    -0.286 OA
HETATM   12  C10 MAN     1     -23.460  19.294 -34.029  1.00  0.00     0.094 A 
HETATM   13  C11 MAN     1     -22.215  19.854 -33.699  1.00  0.00     0.041 A 
HETATM   14  C12 MAN     1     -21.896  21.106 -34.259  1.00  0.00     0.080 A 
HETATM   15  C13 MAN     1     -22.750  21.753 -35.153  1.00  0.00     0.075 A 
ENDROOT
BRANCH  13  16
HETATM   16  C14 MAN     1     -21.222  19.200 -32.750  1.00  0.00     0.192 C 
HETATM   17  C15 MAN     1     -21.478  19.611 -31.272  1.00  0.00     0.183 C 
HETATM   18  C16 MAN     1     -22.043  18.448 -30.444  1.00  0.00     0.181 C 
HETATM   19  C17 MAN     1     -21.163  17.188 -30.572  1.00  0.00     0.180 C 
HETATM   20  C18 MAN     1     -20.407  17.141 -31.915  1.00  0.00     0.177 C 
HETATM   21  O6  MAN     1     -21.175  17.773 -32.937  1.00  0.00    -0.368 OA
BRANCH  17  22
HETATM   22  O10 MAN     1     -20.234  20.017 -30.662  1.00  0.00    -0.390 OA
HETATM   23  H17 MAN     1     -19.803  19.197 -30.351  1.00  0.00     0.210 HD
ENDBRANCH  17  22
BRANCH  18  24
HETATM   24  O9  MAN     1     -23.395  18.166 -30.815  1.00  0.00    -0.390 OA
HETATM   25  H16 MAN     1     -23.987  18.643 -30.194  1.00  0.00     0.210 HD
ENDBRANCH  18  24
BRANCH  19  26
HETATM   26  O8  MAN     1     -20.197  17.117 -29.510  1.00  0.00    -0.390 OA
HETATM   27  H15 MAN     1     -20.657  16.721 -28.742  1.00  0.00     0.210 HD
ENDBRANCH  19  26
BRANCH  20  28
HETATM   28  C19 MAN     1     -20.101  15.690 -32.312  1.00  0.00     0.198 C 
BRANCH  28  29
HETATM   29  O7  MAN     1     -20.933  14.760 -31.622  1.00  0.00    -0.398 OA
HETATM   30  H14 MAN     1     -20.375  14.003 -31.352  1.00  0.00     0.209 HD
ENDBRANCH  28  29
ENDBRANCH  20  28
ENDBRANCH  13  16
BRANCH  12  31
HETATM   31  O11 MAN     1     -23.834  18.120 -33.420  1.00  0.00    -0.359 OA
HETATM   32  H18 MAN     1     -23.865  18.272 -32.445  1.00  0.00     0.217 HD
ENDBRANCH  12  31
BRANCH  14  33
HETATM   33  O5  MAN     1     -20.725  21.711 -33.891  1.00  0.00    -0.360 OA
HETATM   34  H6  MAN     1     -20.243  21.130 -33.275  1.00  0.00     0.217 HD
ENDBRANCH  14  33
BRANCH   6  35
HETATM   35  O1  MAN     1     -29.688  19.940 -37.904  1.00  0.00    -0.358 OA
HETATM   36  H3  MAN     1     -30.272  20.722 -37.897  1.00  0.00     0.217 HD
ENDBRANCH   6  35
BRANCH   5  37
HETATM   37  O2  MAN     1     -28.656  22.277 -39.002  1.00  0.00    -0.358 OA
HETATM   38  H4  MAN     1     -28.415  23.215 -38.887  1.00  0.00     0.217 HD
ENDBRANCH   5  37
TORSDOF 10
ENDMDL
