MODEL 1
REMARK VINA RESULT:    -9.608      0.000      0.000
REMARK INTER + INTRA:         -17.055
REMARK INTER:                 -15.226
REMARK INTRA:                  -1.829
REMARK UNBOUND:                -1.829
REMARK  14 active torsions:
REMARK  status: ('A' for Active; 'I' for Inactive)
REMARK    1  A    between atoms: C3_3  and  O14_41 
REMARK    2  A    between atoms: C4_4  and  O13_40 
REMARK    3  A    between atoms: C5_5  and  O12_39 
REMARK    4  A    between atoms: C6_6  and  O2_8 
REMARK    5  A    between atoms: O2_8  and  C7_9 
REMARK    6  A    between atoms: C8_10  and  O11_38 
REMARK    7  A    between atoms: C9_11  and  O10_37 
REMARK    8  A    between atoms: C10_12  and  C27_35 
REMARK    9  A    between atoms: C11_14  and  O4_15 
REMARK   10  A    between atoms: O4_15  and  C12_16 
REMARK   11  A    between atoms: C14_18  and  O8_34 
REMARK   12  A    between atoms: C18_23  and  C21_27 
REMARK   13  A    between atoms: C24_30  and  O7_33 
REMARK   14  A    between atoms: C27_35  and  O9_36 
ROOT
HETATM    1  C7  NAR     1     -50.268 -78.355 -44.075  1.00  0.00     0.211 C 
HETATM    2  C8  NAR     1     -49.022 -79.242 -44.254  1.00  0.00     0.183 C 
HETATM    3  C9  NAR     1     -47.715 -78.424 -44.212  1.00  0.00     0.180 C 
HETATM    4  C10 NAR     1     -47.967 -76.961 -44.619  1.00  0.00     0.179 C 
HETATM    5  O3  NAR     1     -48.959 -76.910 -45.641  1.00  0.00    -0.348 OA
HETATM    6  C11 NAR     1     -50.273 -77.211 -45.135  1.00  0.00     0.298 C 
ENDROOT
BRANCH   6   7
HETATM    7  O4  NAR     1     -51.096 -77.657 -46.224  1.00  0.00    -0.318 OA
BRANCH   7   8
HETATM    8  C12 NAR     1     -51.851 -76.719 -46.870  1.00  0.00     0.077 A 
HETATM    9  C13 NAR     1     -52.493 -75.635 -46.268  1.00  0.00     0.074 A 
HETATM   10  C14 NAR     1     -53.220 -74.738 -47.050  1.00  0.00     0.085 A 
HETATM   11  C15 NAR     1     -53.312 -74.916 -48.432  1.00  0.00     0.076 A 
HETATM   12  C16 NAR     1     -54.028 -73.957 -49.293  1.00  0.00     0.167 C 
HETATM   13  C19 NAR     1     -52.679 -76.003 -49.033  1.00  0.00     0.089 A 
HETATM   14  O5  NAR     1     -54.604 -72.995 -48.790  1.00  0.00    -0.292 OA
HETATM   15  C17 NAR     1     -53.951 -74.184 -50.775  1.00  0.00     0.121 C 
HETATM   16  C18 NAR     1     -53.875 -75.685 -51.021  1.00  0.00     0.169 C 
HETATM   17  O6  NAR     1     -52.719 -76.252 -50.380  1.00  0.00    -0.340 OA
HETATM   18  C20 NAR     1     -51.933 -76.887 -48.256  1.00  0.00     0.074 A 
BRANCH  10  19
HETATM   19  O8  NAR     1     -53.812 -73.691 -46.394  1.00  0.00    -0.360 OA
HETATM   20  H24 NAR     1     -54.779 -73.866 -46.344  1.00  0.00     0.217 HD
ENDBRANCH  10  19
BRANCH  16  21
HETATM   21  C21 NAR     1     -53.806 -75.976 -52.509  1.00  0.00    -0.028 A 
HETATM   22  C22 NAR     1     -52.654 -75.683 -53.259  1.00  0.00     0.012 A 
HETATM   23  C23 NAR     1     -52.613 -75.934 -54.633  1.00  0.00     0.037 A 
HETATM   24  C24 NAR     1     -53.728 -76.476 -55.263  1.00  0.00     0.065 A 
HETATM   25  C25 NAR     1     -54.879 -76.767 -54.542  1.00  0.00     0.037 A 
HETATM   26  C26 NAR     1     -54.920 -76.517 -53.169  1.00  0.00     0.012 A 
BRANCH  24  27
HETATM   27  O7  NAR     1     -53.733 -76.737 -56.600  1.00  0.00    -0.361 OA
HETATM   28  H23 NAR     1     -52.821 -76.681 -56.930  1.00  0.00     0.217 HD
ENDBRANCH  24  27
ENDBRANCH  16  21
ENDBRANCH   7   8
ENDBRANCH   6   7
BRANCH   1  29
HETATM   29  O2  NAR     1     -50.242 -77.816 -42.740  1.00  0.00    -0.346 OA
BRANCH  29  30
HETATM   30  C6  NAR     1     -50.610 -78.779 -41.749  1.00  0.00     0.292 C 
HETATM   31  C5  NAR     1     -49.836 -78.432 -40.459  1.00  0.00     0.204 C 
HETATM   32  C4  NAR     1     -50.494 -79.070 -39.227  1.00  0.00     0.183 C 
HETATM   33  C3  NAR     1     -51.358 -80.268 -39.622  1.00  0.00     0.178 C 
HETATM   34  C2  NAR     1     -52.440 -79.815 -40.625  1.00  0.00     0.152 C 
HETATM   35  C1  NAR     1     -52.957 -80.979 -41.465  1.00  0.00     0.042 C 
HETATM   36  O1  NAR     1     -52.008 -78.760 -41.500  1.00  0.00    -0.351 OA
BRANCH  31  37
HETATM   37  O12 NAR     1     -48.470 -78.883 -40.562  1.00  0.00    -0.388 OA
HETATM   38  H30 NAR     1     -47.978 -78.143 -40.974  1.00  0.00     0.210 HD
ENDBRANCH  31  37
BRANCH  32  39
HETATM   39  O13 NAR     1     -49.509 -79.497 -38.272  1.00  0.00    -0.390 OA
HETATM   40  H31 NAR     1     -48.711 -78.959 -38.471  1.00  0.00     0.210 HD
ENDBRANCH  32  39
BRANCH  33  41
HETATM   41  O14 NAR     1     -51.961 -80.844 -38.461  1.00  0.00    -0.390 OA
HETATM   42  H32 NAR     1     -52.407 -80.097 -38.008  1.00  0.00     0.210 HD
ENDBRANCH  33  41
ENDBRANCH  29  30
ENDBRANCH   1  29
BRANCH   2  43
HETATM   43  O11 NAR     1     -49.112 -79.972 -45.489  1.00  0.00    -0.390 OA
HETATM   44  H29 NAR     1     -49.673 -80.758 -45.335  1.00  0.00     0.210 HD
ENDBRANCH   2  43
BRANCH   4  45
HETATM   45  C27 NAR     1     -46.676 -76.309 -45.131  1.00  0.00     0.198 C 
BRANCH  45  46
HETATM   46  O9  NAR     1     -45.544 -77.096 -44.768  1.00  0.00    -0.398 OA
HETATM   47  H27 NAR     1     -45.870 -78.007 -44.641  1.00  0.00     0.209 HD
ENDBRANCH  45  46
ENDBRANCH   4  45
BRANCH   3  48
HETATM   48  O10 NAR     1     -47.127 -78.467 -42.907  1.00  0.00    -0.390 OA
HETATM   49  H28 NAR     1     -47.431 -77.654 -42.452  1.00  0.00     0.210 HD
ENDBRANCH   3  48
TORSDOF 14
ENDMDL
