MODEL 1
REMARK VINA RESULT:    -8.003      0.000      0.000
REMARK INTER + INTRA:          -9.990
REMARK INTER:                  -9.641
REMARK INTRA:                  -0.350
REMARK UNBOUND:                -0.350
REMARK  5 active torsions:
REMARK  status: ('A' for Active; 'I' for Inactive)
REMARK    1  A    between atoms: C3_3  and  O3_17 
REMARK    2  A    between atoms: C6_6  and  C7_7 
REMARK    3  A    between atoms: C8_8  and  C9_9 
REMARK    4  A    between atoms: C11_11  and  O2_16 
REMARK    5  A    between atoms: C13_13  and  O1_15 
ROOT
HETATM    1  C9  RES     1      16.695 -20.689 -63.435  1.00  0.00    -0.031 A 
HETATM    2  C10 RES     1      16.055 -20.030 -64.493  1.00  0.00     0.048 A 
HETATM    3  C11 RES     1      16.797 -19.286 -65.407  1.00  0.00     0.069 A 
HETATM    4  C12 RES     1      18.179 -19.192 -65.295  1.00  0.00     0.073 A 
HETATM    5  C13 RES     1      18.815 -19.860 -64.256  1.00  0.00     0.069 A 
HETATM    6  C14 RES     1      18.090 -20.610 -63.330  1.00  0.00     0.048 A 
ENDROOT
BRANCH   1   7
HETATM    7  C8  RES     1      15.884 -21.490 -62.507  1.00  0.00     0.012 C 
HETATM    8  C7  RES     1      14.596 -21.231 -62.227  1.00  0.00     0.012 C 
BRANCH   8   9
HETATM    9  C6  RES     1      13.783 -22.033 -61.301  1.00  0.00    -0.036 A 
HETATM   10  C1  RES     1      12.395 -22.172 -61.453  1.00  0.00     0.014 A 
HETATM   11  C2  RES     1      11.650 -22.918 -60.536  1.00  0.00     0.037 A 
HETATM   12  C3  RES     1      12.291 -23.518 -59.458  1.00  0.00     0.065 A 
HETATM   13  C4  RES     1      13.662 -23.379 -59.282  1.00  0.00     0.037 A 
HETATM   14  C5  RES     1      14.407 -22.633 -60.199  1.00  0.00     0.014 A 
BRANCH  12  15
HETATM   15  O3  RES     1      11.604 -24.253 -58.540  1.00  0.00    -0.361 OA
HETATM   16  H12 RES     1      10.929 -23.686 -58.132  1.00  0.00     0.217 HD
ENDBRANCH  12  15
ENDBRANCH   8   9
ENDBRANCH   1   7
BRANCH   3  17
HETATM   17  O2  RES     1      16.122 -18.657 -66.412  1.00  0.00    -0.361 OA
HETATM   18  H11 RES     1      16.127 -17.702 -66.234  1.00  0.00     0.217 HD
ENDBRANCH   3  17
BRANCH   5  19
HETATM   19  O1  RES     1      20.175 -19.760 -64.179  1.00  0.00    -0.361 OA
HETATM   20  H10 RES     1      20.520 -20.549 -63.730  1.00  0.00     0.217 HD
ENDBRANCH   5  19
TORSDOF 5
ENDMDL
