MODEL 1
REMARK VINA RESULT:    -8.506      0.000      0.000
REMARK INTER + INTRA:         -10.305
REMARK INTER:                 -10.247
REMARK INTRA:                  -0.058
REMARK UNBOUND:                -0.058
REMARK  5 active torsions:
REMARK  status: ('A' for Active; 'I' for Inactive)
REMARK    1  A    between atoms: O1_2  and  C2_3 
REMARK    2  A    between atoms: C4_5  and  O6_22 
REMARK    3  A    between atoms: C8_10  and  C11_15 
REMARK    4  A    between atoms: C9_11  and  O4_14 
REMARK    5  A    between atoms: C14_18  and  O5_21 
ROOT
HETATM    1  C2  RHA     1     -21.179 -55.245  -2.927  1.00  0.00     0.073 A 
HETATM    2  C3  RHA     1     -21.774 -55.958  -1.884  1.00  0.00     0.074 A 
HETATM    3  C4  RHA     1     -23.156 -56.152  -1.872  1.00  0.00     0.085 A 
HETATM    4  C5  RHA     1     -23.949 -55.636  -2.899  1.00  0.00     0.084 A 
HETATM    5  C6  RHA     1     -23.361 -54.927  -3.940  1.00  0.00     0.096 A 
HETATM    6  C7  RHA     1     -21.980 -54.732  -3.954  1.00  0.00     0.075 A 
HETATM    7  O2  RHA     1     -24.078 -54.396  -4.981  1.00  0.00    -0.306 OA
HETATM    8  C8  RHA     1     -25.459 -54.557  -4.997  1.00  0.00     0.123 A 
HETATM    9  C9  RHA     1     -26.148 -55.228  -4.055  1.00  0.00     0.152 A 
HETATM   10  C10 RHA     1     -25.400 -55.821  -2.921  1.00  0.00     0.223 A 
HETATM   11  O3  RHA     1     -25.990 -56.443  -2.041  1.00  0.00    -0.284 OA
ENDROOT
BRANCH   8  12
HETATM   12  C11 RHA     1     -26.096 -53.933  -6.177  1.00  0.00     0.001 A 
HETATM   13  C12 RHA     1     -25.511 -54.082  -7.446  1.00  0.00     0.017 A 
HETATM   14  C13 RHA     1     -26.079 -53.481  -8.574  1.00  0.00     0.037 A 
HETATM   15  C14 RHA     1     -27.234 -52.721  -8.433  1.00  0.00     0.065 A 
HETATM   16  C15 RHA     1     -27.825 -52.551  -7.189  1.00  0.00     0.037 A 
HETATM   17  C16 RHA     1     -27.256 -53.152  -6.063  1.00  0.00     0.017 A 
BRANCH  15  18
HETATM   18  O5  RHA     1     -27.821 -52.116  -9.505  1.00  0.00    -0.361 OA
HETATM   19  H11 RHA     1     -28.659 -51.719  -9.217  1.00  0.00     0.217 HD
ENDBRANCH  15  18
ENDBRANCH   8  12
BRANCH   9  20
HETATM   20  O4  RHA     1     -27.516 -55.420  -4.075  1.00  0.00    -0.355 OA
HETATM   21  H6  RHA     1     -27.688 -56.146  -3.439  1.00  0.00     0.218 HD
ENDBRANCH   9  20
BRANCH   3  22
HETATM   22  O6  RHA     1     -23.668 -56.861  -0.819  1.00  0.00    -0.360 OA
HETATM   23  H12 RHA     1     -23.472 -56.372   0.012  1.00  0.00     0.217 HD
ENDBRANCH   3  22
BRANCH   1  24
HETATM   24  O1  RHA     1     -19.844 -54.983  -3.062  1.00  0.00    -0.356 OA
HETATM   25  C1  RHA     1     -18.942 -55.951  -2.537  1.00  0.00     0.210 C 
ENDBRANCH   1  24
TORSDOF 5
ENDMDL
