MODEL 1
REMARK VINA RESULT:    -9.138      0.000      0.000
REMARK INTER + INTRA:         -17.567
REMARK INTER:                 -15.014
REMARK INTRA:                  -2.553
REMARK UNBOUND:                -2.553
REMARK  16 active torsions:
REMARK  status: ('A' for Active; 'I' for Inactive)
REMARK    1  A    between atoms: C3_3  and  O16_43 
REMARK    2  A    between atoms: C4_4  and  O15_42 
REMARK    3  A    between atoms: C5_5  and  O14_41 
REMARK    4  A    between atoms: C6_6  and  O2_8 
REMARK    5  A    between atoms: O2_8  and  C7_9 
REMARK    6  A    between atoms: C7_9  and  C8_10 
REMARK    7  A    between atoms: C9_11  and  O13_40 
REMARK    8  A    between atoms: C10_12  and  O12_39 
REMARK    9  A    between atoms: C11_13  and  O11_38 
REMARK   10  A    between atoms: C12_14  and  O4_16 
REMARK   11  A    between atoms: O4_16  and  C13_17 
REMARK   12  A    between atoms: C14_18  and  C22_30 
REMARK   13  A    between atoms: C17_22  and  O8_29 
REMARK   14  A    between atoms: C19_24  and  O7_28 
REMARK   15  A    between atoms: C24_32  and  O10_37 
REMARK   16  A    between atoms: C25_33  and  O9_36 
ROOT
HETATM    1  C8  RUT     1     -78.577 -76.213 -36.393  1.00  0.00     0.180 C 
HETATM    2  C9  RUT     1     -78.961 -77.477 -35.607  1.00  0.00     0.180 C 
HETATM    3  C10 RUT     1     -78.987 -78.677 -36.560  1.00  0.00     0.183 C 
HETATM    4  C11 RUT     1     -77.845 -78.661 -37.584  1.00  0.00     0.205 C 
HETATM    5  C12 RUT     1     -76.772 -77.606 -37.243  1.00  0.00     0.298 C 
HETATM    6  O3  RUT     1     -77.292 -76.288 -37.020  1.00  0.00    -0.348 OA
ENDROOT
BRANCH   5   7
HETATM    7  O4  RUT     1     -76.035 -78.031 -36.089  1.00  0.00    -0.311 OA
BRANCH   7   8
HETATM    8  C13 RUT     1     -74.862 -78.688 -36.415  1.00  0.00     0.157 A 
HETATM    9  C14 RUT     1     -73.701 -78.038 -36.625  1.00  0.00     0.124 A 
HETATM   10  O5  RUT     1     -72.502 -78.647 -36.954  1.00  0.00    -0.306 OA
HETATM   11  C15 RUT     1     -72.453 -80.015 -37.006  1.00  0.00     0.096 A 
HETATM   12  C16 RUT     1     -71.220 -80.594 -37.305  1.00  0.00     0.075 A 
HETATM   13  C20 RUT     1     -73.565 -80.821 -36.779  1.00  0.00     0.084 A 
HETATM   14  C17 RUT     1     -71.110 -81.980 -37.372  1.00  0.00     0.071 A 
HETATM   15  C18 RUT     1     -72.213 -82.798 -37.147  1.00  0.00     0.074 A 
HETATM   16  C19 RUT     1     -73.442 -82.214 -36.850  1.00  0.00     0.085 A 
HETATM   17  C21 RUT     1     -74.847 -80.174 -36.479  1.00  0.00     0.223 A 
HETATM   18  O6  RUT     1     -75.858 -80.851 -36.302  1.00  0.00    -0.284 OA
BRANCH   9  19
HETATM   19  C22 RUT     1     -73.600 -76.571 -36.559  1.00  0.00     0.004 A 
HETATM   20  C23 RUT     1     -73.784 -75.808 -37.724  1.00  0.00     0.053 A 
HETATM   21  C24 RUT     1     -73.666 -74.424 -37.661  1.00  0.00     0.099 A 
HETATM   22  C25 RUT     1     -73.360 -73.795 -36.457  1.00  0.00     0.098 A 
HETATM   23  C26 RUT     1     -73.174 -74.534 -35.298  1.00  0.00     0.040 A 
HETATM   24  C27 RUT     1     -73.296 -75.924 -35.349  1.00  0.00     0.017 A 
BRANCH  21  25
HETATM   25  O10 RUT     1     -73.842 -73.632 -38.763  1.00  0.00    -0.358 OA
HETATM   26  H24 RUT     1     -74.793 -73.589 -38.960  1.00  0.00     0.217 HD
ENDBRANCH  21  25
BRANCH  22  27
HETATM   27  O9  RUT     1     -73.236 -72.438 -36.406  1.00  0.00    -0.358 OA
HETATM   28  H23 RUT     1     -74.055 -72.099 -36.818  1.00  0.00     0.217 HD
ENDBRANCH  22  27
ENDBRANCH   9  19
BRANCH  14  29
HETATM   29  O8  RUT     1     -69.887 -82.503 -37.667  1.00  0.00    -0.361 OA
HETATM   30  H19 RUT     1     -69.255 -82.237 -36.977  1.00  0.00     0.217 HD
ENDBRANCH  14  29
BRANCH  16  31
HETATM   31  O7  RUT     1     -74.492 -83.069 -36.638  1.00  0.00    -0.360 OA
HETATM   32  H18 RUT     1     -75.292 -82.533 -36.439  1.00  0.00     0.217 HD
ENDBRANCH  16  31
ENDBRANCH   7   8
ENDBRANCH   5   7
BRANCH   4  33
HETATM   33  O11 RUT     1     -78.405 -78.376 -38.882  1.00  0.00    -0.388 OA
HETATM   34  H25 RUT     1     -78.965 -77.586 -38.780  1.00  0.00     0.210 HD
ENDBRANCH   4  33
BRANCH   3  35
HETATM   35  O12 RUT     1     -78.949 -79.882 -35.775  1.00  0.00    -0.390 OA
HETATM   36  H26 RUT     1     -79.873 -80.027 -35.491  1.00  0.00     0.210 HD
ENDBRANCH   3  35
BRANCH   1  37
HETATM   37  C7  RUT     1     -78.586 -74.962 -35.499  1.00  0.00     0.205 C 
BRANCH  37  38
HETATM   38  O2  RUT     1     -77.641 -74.001 -35.983  1.00  0.00    -0.356 OA
BRANCH  38  39
HETATM   39  C6  RUT     1     -78.288 -72.779 -36.362  1.00  0.00     0.291 C 
HETATM   40  C5  RUT     1     -77.696 -71.609 -35.550  1.00  0.00     0.204 C 
HETATM   41  C4  RUT     1     -76.285 -71.279 -36.031  1.00  0.00     0.183 C 
HETATM   42  C3  RUT     1     -76.259 -71.077 -37.549  1.00  0.00     0.178 C 
HETATM   43  C2  RUT     1     -76.853 -72.317 -38.233  1.00  0.00     0.152 C 
HETATM   44  C1  RUT     1     -76.917 -72.146 -39.747  1.00  0.00     0.042 C 
HETATM   45  O1  RUT     1     -78.183 -72.570 -37.773  1.00  0.00    -0.351 OA
BRANCH  40  46
HETATM   46  O14 RUT     1     -78.514 -70.431 -35.670  1.00  0.00    -0.388 OA
HETATM   47  H28 RUT     1     -79.383 -70.766 -35.972  1.00  0.00     0.210 HD
ENDBRANCH  40  46
BRANCH  41  48
HETATM   48  O15 RUT     1     -75.838 -70.073 -35.385  1.00  0.00    -0.390 OA
HETATM   49  H29 RUT     1     -75.043 -70.345 -34.881  1.00  0.00     0.210 HD
ENDBRANCH  41  48
BRANCH  42  50
HETATM   50  O16 RUT     1     -74.898 -70.836 -37.930  1.00  0.00    -0.390 OA
HETATM   51  H30 RUT     1     -74.570 -70.099 -37.384  1.00  0.00     0.210 HD
ENDBRANCH  42  50
ENDBRANCH  38  39
ENDBRANCH  37  38
ENDBRANCH   1  37
BRANCH   2  52
HETATM   52  O13 RUT     1     -80.253 -77.403 -34.985  1.00  0.00    -0.390 OA
HETATM   53  H27 RUT     1     -80.103 -77.343 -34.020  1.00  0.00     0.210 HD
ENDBRANCH   2  52
TORSDOF 16
ENDMDL
