MODEL 1
REMARK VINA RESULT:    -8.646      0.000      0.000
REMARK INTER + INTRA:         -12.783
REMARK INTER:                 -11.931
REMARK INTRA:                  -0.852
REMARK UNBOUND:                -0.852
REMARK  9 active torsions:
REMARK  status: ('A' for Active; 'I' for Inactive)
REMARK    1  A    between atoms: O1_2  and  C2_3 
REMARK    2  A    between atoms: C3_4  and  O10_35 
REMARK    3  A    between atoms: C6_7  and  C8_9 
REMARK    4  A    between atoms: C9_10  and  C25_33 
REMARK    5  A    between atoms: C13_16  and  C16_19 
REMARK    6  A    between atoms: C17_20  and  O8_32 
REMARK    7  A    between atoms: C20_24  and  O7_31 
REMARK    8  A    between atoms: C22_26  and  O6_30 
REMARK    9  A    between atoms: C25_33  and  O9_34 
ROOT
HETATM    1  C8  SIL     1     -58.669 -92.417 -41.136  1.00  0.00     0.193 C 
HETATM    2  C9  SIL     1     -59.841 -91.466 -40.833  1.00  0.00     0.186 C 
HETATM    3  O2  SIL     1     -60.778 -92.104 -39.934  1.00  0.00    -0.338 OA
HETATM    4  C10 SIL     1     -60.143 -92.719 -38.888  1.00  0.00     0.102 A 
HETATM    5  C11 SIL     1     -58.777 -93.002 -38.881  1.00  0.00     0.103 A 
HETATM    6  O3  SIL     1     -57.943 -92.709 -39.926  1.00  0.00    -0.336 OA
HETATM    7  C12 SIL     1     -58.192 -93.604 -37.766  1.00  0.00     0.049 A 
HETATM    8  C13 SIL     1     -58.974 -93.965 -36.656  1.00  0.00    -0.023 A 
HETATM    9  C14 SIL     1     -60.351 -93.689 -36.686  1.00  0.00     0.013 A 
HETATM   10  C15 SIL     1     -60.933 -93.075 -37.798  1.00  0.00     0.040 A 
ENDROOT
BRANCH   8  11
HETATM   11  C16 SIL     1     -58.356 -94.611 -35.424  1.00  0.00     0.198 C 
HETATM   12  C17 SIL     1     -58.817 -96.065 -35.270  1.00  0.00     0.227 C 
HETATM   13  C18 SIL     1     -58.247 -96.619 -33.978  1.00  0.00     0.196 C 
HETATM   14  O4  SIL     1     -57.986 -97.814 -33.827  1.00  0.00    -0.289 OA
HETATM   15  C19 SIL     1     -58.045 -95.676 -32.868  1.00  0.00     0.079 A 
HETATM   16  C20 SIL     1     -57.625 -96.110 -31.605  1.00  0.00     0.085 A 
HETATM   17  C24 SIL     1     -58.311 -94.324 -33.086  1.00  0.00     0.089 A 
HETATM   18  C21 SIL     1     -57.485 -95.203 -30.558  1.00  0.00     0.074 A 
HETATM   19  C22 SIL     1     -57.776 -93.861 -30.781  1.00  0.00     0.071 A 
HETATM   20  C23 SIL     1     -58.191 -93.416 -32.034  1.00  0.00     0.074 A 
HETATM   21  O5  SIL     1     -58.724 -93.813 -34.284  1.00  0.00    -0.337 OA
BRANCH  12  22
HETATM   22  O8  SIL     1     -58.349 -96.886 -36.345  1.00  0.00    -0.385 OA
HETATM   23  H18 SIL     1     -59.070 -97.517 -36.542  1.00  0.00     0.210 HD
ENDBRANCH  12  22
BRANCH  16  24
HETATM   24  O7  SIL     1     -57.339 -97.420 -31.323  1.00  0.00    -0.360 OA
HETATM   25  H17 SIL     1     -58.172 -97.871 -31.061  1.00  0.00     0.217 HD
ENDBRANCH  16  24
BRANCH  19  26
HETATM   26  O6  SIL     1     -57.664 -92.936 -29.786  1.00  0.00    -0.361 OA
HETATM   27  H16 SIL     1     -58.404 -93.049 -29.165  1.00  0.00     0.217 HD
ENDBRANCH  19  26
ENDBRANCH   8  11
BRANCH   1  28
HETATM   28  C6  SIL     1     -57.666 -91.852 -42.124  1.00  0.00    -0.024 A 
HETATM   29  C5  SIL     1     -57.367 -92.529 -43.316  1.00  0.00     0.013 A 
HETATM   30  C4  SIL     1     -56.428 -92.012 -44.208  1.00  0.00     0.040 A 
HETATM   31  C3  SIL     1     -55.787 -90.810 -43.916  1.00  0.00     0.099 A 
HETATM   32  C2  SIL     1     -56.072 -90.106 -42.739  1.00  0.00     0.101 A 
HETATM   33  C7  SIL     1     -57.014 -90.635 -41.849  1.00  0.00     0.049 A 
BRANCH  31  34
HETATM   34  O10 SIL     1     -54.864 -90.302 -44.792  1.00  0.00    -0.358 OA
HETATM   35  H22 SIL     1     -54.336 -89.627 -44.339  1.00  0.00     0.217 HD
ENDBRANCH  31  34
BRANCH  32  36
HETATM   36  O1  SIL     1     -55.385 -88.935 -42.553  1.00  0.00    -0.353 OA
HETATM   37  C1  SIL     1     -54.345 -88.929 -41.586  1.00  0.00     0.210 C 
ENDBRANCH  32  36
ENDBRANCH   1  28
BRANCH   2  38
HETATM   38  C25 SIL     1     -60.641 -91.100 -42.088  1.00  0.00     0.199 C 
BRANCH  38  39
HETATM   39  O9  SIL     1     -61.932 -91.715 -42.045  1.00  0.00    -0.398 OA
HETATM   40  H21 SIL     1     -61.785 -92.634 -41.750  1.00  0.00     0.209 HD
ENDBRANCH  38  39
ENDBRANCH   2  38
TORSDOF 9
ENDMDL
