MODEL 1
REMARK VINA RESULT:    -9.563      0.000      0.000
REMARK INTER + INTRA:         -14.184
REMARK INTER:                 -13.197
REMARK INTRA:                  -0.987
REMARK UNBOUND:                -0.987
REMARK  10 active torsions:
REMARK  status: ('A' for Active; 'I' for Inactive)
REMARK    1  A    between atoms: C3_3  and  O10_31 
REMARK    2  A    between atoms: C6_6  and  C7_7 
REMARK    3  A    between atoms: C12_14  and  C16_20 
REMARK    4  A    between atoms: C13_15  and  O4_19 
REMARK    5  A    between atoms: C15_17  and  O3_18 
REMARK    6  A    between atoms: C17_21  and  O9_30 
REMARK    7  A    between atoms: C18_22  and  O8_29 
REMARK    8  A    between atoms: C19_23  and  O7_28 
REMARK    9  A    between atoms: C20_24  and  C21_26 
REMARK   10  A    between atoms: C21_26  and  O6_27 
ROOT
HETATM    1  C7  VIT     1      14.398 -20.762 -63.051  1.00  0.00     0.090 A 
HETATM    2  C8  VIT     1      14.320 -20.268 -64.294  1.00  0.00     0.094 A 
HETATM    3  C9  VIT     1      15.559 -19.889 -64.982  1.00  0.00     0.190 A 
HETATM    4  O1  VIT     1      15.542 -19.425 -66.117  1.00  0.00    -0.287 OA
HETATM    5  C10 VIT     1      16.820 -20.079 -64.254  1.00  0.00     0.082 A 
HETATM    6  C11 VIT     1      16.777 -20.623 -62.967  1.00  0.00     0.104 A 
HETATM    7  O2  VIT     1      15.585 -20.967 -62.370  1.00  0.00    -0.308 OA
HETATM    8  C12 VIT     1      17.965 -20.830 -62.235  1.00  0.00     0.041 A 
HETATM    9  C13 VIT     1      19.179 -20.451 -62.836  1.00  0.00     0.080 A 
HETATM   10  C14 VIT     1      19.223 -19.903 -64.120  1.00  0.00     0.074 A 
HETATM   11  C15 VIT     1      18.043 -19.722 -64.828  1.00  0.00     0.085 A 
ENDROOT
BRANCH   8  12
HETATM   12  C16 VIT     1      17.954 -21.438 -60.840  1.00  0.00     0.192 C 
HETATM   13  C17 VIT     1      17.682 -20.390 -59.724  1.00  0.00     0.183 C 
HETATM   14  C18 VIT     1      16.961 -21.027 -58.512  1.00  0.00     0.181 C 
HETATM   15  C19 VIT     1      17.402 -22.487 -58.348  1.00  0.00     0.180 C 
HETATM   16  C20 VIT     1      17.092 -23.305 -59.630  1.00  0.00     0.177 C 
HETATM   17  O5  VIT     1      16.975 -22.487 -60.808  1.00  0.00    -0.368 OA
BRANCH  13  18
HETATM   18  O9  VIT     1      18.927 -19.816 -59.284  1.00  0.00    -0.390 OA
HETATM   19  H19 VIT     1      19.604 -20.514 -59.407  1.00  0.00     0.210 HD
ENDBRANCH  13  18
BRANCH  14  20
HETATM   20  O8  VIT     1      15.539 -20.964 -58.632  1.00  0.00    -0.390 OA
HETATM   21  H18 VIT     1      15.158 -21.540 -57.944  1.00  0.00     0.210 HD
ENDBRANCH  14  20
BRANCH  15  22
HETATM   22  O7  VIT     1      18.825 -22.488 -58.103  1.00  0.00    -0.390 OA
HETATM   23  H17 VIT     1      19.003 -23.269 -57.545  1.00  0.00     0.210 HD
ENDBRANCH  15  22
BRANCH  16  24
HETATM   24  C21 VIT     1      15.791 -24.102 -59.492  1.00  0.00     0.198 C 
BRANCH  24  25
HETATM   25  O6  VIT     1      15.010 -23.599 -58.411  1.00  0.00    -0.398 OA
HETATM   26  H16 VIT     1      15.185 -24.180 -57.650  1.00  0.00     0.209 HD
ENDBRANCH  24  25
ENDBRANCH  16  24
ENDBRANCH   8  12
BRANCH   9  27
HETATM   27  O4  VIT     1      20.348 -20.624 -62.149  1.00  0.00    -0.360 OA
HETATM   28  H8  VIT     1      20.166 -21.111 -61.327  1.00  0.00     0.217 HD
ENDBRANCH   9  27
BRANCH  11  29
HETATM   29  O3  VIT     1      18.154 -19.184 -66.081  1.00  0.00    -0.360 OA
HETATM   30  H7  VIT     1      17.248 -18.999 -66.417  1.00  0.00     0.217 HD
ENDBRANCH  11  29
BRANCH   1  31
HETATM   31  C6  VIT     1      13.193 -21.159 -62.295  1.00  0.00    -0.002 A 
HETATM   32  C1  VIT     1      11.970 -20.485 -62.444  1.00  0.00     0.017 A 
HETATM   33  C2  VIT     1      10.845 -20.866 -61.704  1.00  0.00     0.037 A 
HETATM   34  C3  VIT     1      10.944 -21.921 -60.804  1.00  0.00     0.065 A 
HETATM   35  C4  VIT     1      12.144 -22.595 -60.631  1.00  0.00     0.037 A 
HETATM   36  C5  VIT     1      13.266 -22.214 -61.373  1.00  0.00     0.017 A 
BRANCH  34  37
HETATM   37  O10 VIT     1       9.875 -22.324 -60.061  1.00  0.00    -0.361 OA
HETATM   38  H20 VIT     1       9.676 -21.641 -59.401  1.00  0.00     0.217 HD
ENDBRANCH  34  37
ENDBRANCH   1  31
TORSDOF 10
ENDMDL
