@<TRIPOS>MOLECULE
*****
 54 57 0 0 0
SMALL
GASTEIGER

@<TRIPOS>ATOM
      1  C1       -27.6728   -7.9867  -11.6280 C.3     1  CIP1       -0.0359
      2  N1       -28.6000   -6.3523  -11.3141 N.3     1  CIP1       -0.2955
      3  O1       -29.8445   -2.5865   -9.7987 O.3     1  CIP1       -0.3910
      4  C2       -27.9402   -7.4451  -12.9758 C.3     1  CIP1       -0.0359
      5  N2       -28.0777   -7.5697   -6.3060 N.3     1  CIP1       -0.2942
      6  O2       -32.5794   -4.8305  -11.1723 O.3     1  CIP1       -0.3668
      7  C3       -29.1325   -7.5959  -12.0131 C.3     1  CIP1        0.0108
      8  N3       -26.3959   -9.4162   -4.7304 N.3     1  CIP1       -0.3136
      9  O3       -31.7732   -4.4786  -13.3121 O.3     1  CIP1       -0.3668
     10  C4       -28.8944   -5.0281  -12.0093 C.3     1  CIP1        0.0093
     11  C5       -30.1568   -4.2673  -11.5216 C.3     1  CIP1        0.0487
     12  C6       -30.0781   -3.9839   -9.9900 C.3     1  CIP1        0.0681
     13  C7       -28.9449   -4.7894   -9.3104 C.3     1  CIP1        0.0038
     14  C8       -29.0223   -4.6911   -7.7595 C.3     1  CIP1       -0.0136
     15  C9       -29.7666   -5.8970   -7.1641 C.3     1  CIP1        0.1168
     16  C10      -28.9870   -7.2144   -7.4458 C.3     1  CIP1        0.0430
     17  C11      -28.2963   -7.1897   -8.8483 C.3     1  CIP1       -0.0186
     18  C12      -29.0315   -6.2517   -9.8500 C.3     1  CIP1        0.0175
     19  C13      -28.6525   -8.4507   -5.2499 C.3     1  CIP1        0.0119
     20  C14      -27.8014   -9.7298   -5.0969 C.3     1  CIP1        0.0087
     21  C15      -25.9125   -8.0876   -5.1858 C.3     1  CIP1        0.0087
     22  C16      -26.6012   -7.6557   -6.4972 C.3     1  CIP1        0.0119
     23  C17      -31.4396   -4.9968  -12.0217 C.3     1  CIP1        0.1595
     24  F1       -29.9797   -5.7000   -5.8484 F       1  CIP1       -0.2439
     25  H01      -26.8322   -7.4843  -11.1146 H       1  CIP1        0.0281
     26  H02      -27.5132   -9.0602  -11.5723 H       1  CIP1        0.0281
     27  H03      -30.0550   -2.3760   -8.8760 H       1  CIP1        0.2098
     28  H04      -27.9231   -8.1561  -13.7969 H       1  CIP1        0.0281
     29  H05      -27.4083   -6.5354  -13.2559 H       1  CIP1        0.0281
     30  H06      -32.7280   -3.8810  -11.0080 H       1  CIP1        0.2125
     31  H07      -29.8207   -8.3709  -11.6823 H       1  CIP1        0.0463
     32  H08      -26.2606   -9.4918   -3.7242 H       1  CIP1        0.1220
     33  H09      -32.0870   -5.1980  -13.8840 H       1  CIP1        0.2125
     34  H10      -28.9954   -5.1610  -13.0897 H       1  CIP1        0.0432
     35  H11      -28.0340   -4.3706  -11.8559 H       1  CIP1        0.0432
     36  H12      -30.1342   -3.2978  -12.0295 H       1  CIP1        0.0387
     37  H13      -31.0191   -4.2394   -9.5000 H       1  CIP1        0.0601
     38  H14      -27.9792   -4.3611   -9.5953 H       1  CIP1        0.0342
     39  H15      -29.5048   -3.7617   -7.4484 H       1  CIP1        0.0297
     40  H16      -28.0092   -4.6683   -7.3492 H       1  CIP1        0.0297
     41  H17      -30.7555   -5.9605   -7.6268 H       1  CIP1        0.0667
     42  H18      -29.7481   -7.9971   -7.5104 H       1  CIP1        0.0491
     43  H19      -28.2763   -8.2208   -9.2025 H       1  CIP1        0.0296
     44  H20      -27.2652   -6.8387   -8.7931 H       1  CIP1        0.0296
     45  H21      -30.0866   -6.5432   -9.8197 H       1  CIP1        0.0467
     46  H22      -29.6853   -8.7204   -5.4859 H       1  CIP1        0.0439
     47  H23      -28.6546   -7.9099   -4.2991 H       1  CIP1        0.0439
     48  H24      -28.2376  -10.3877   -4.3406 H       1  CIP1        0.0437
     49  H25      -27.8049  -10.2596   -6.0538 H       1  CIP1        0.0437
     50  H26      -24.8280   -8.1193   -5.3197 H       1  CIP1        0.0437
     51  H27      -26.1407   -7.3447   -4.4160 H       1  CIP1        0.0437
     52  H28      -26.2118   -6.6812   -6.8045 H       1  CIP1        0.0439
     53  H29      -26.3684   -8.3934   -7.2704 H       1  CIP1        0.0439
     54  H30      -31.2676   -6.0787  -12.1199 H       1  CIP1        0.0909
@<TRIPOS>BOND
     1    28     4    1
     2    33     9    1
     3    29     4    1
     4     9    23    1
     5     4     1    1
     6     4     7    1
     7    34    10    1
     8    54    23    1
     9    36    11    1
    10    23    11    1
    11    23     6    1
    12    10    35    1
    13    10    11    1
    14    10     2    1
    15     1     7    1
    16     1    26    1
    17     1    25    1
    18     7    31    1
    19     7     2    1
    20    11    12    1
    21     6    30    1
    22     2    18    1
    23    12     3    1
    24    12    37    1
    25    12    13    1
    26     3    27    1
    27    45    18    1
    28    18    13    1
    29    18    17    1
    30    38    13    1
    31    13    14    1
    32    43    17    1
    33    17    44    1
    34    17    16    1
    35    14    39    1
    36    14    40    1
    37    14    15    1
    38    41    15    1
    39    42    16    1
    40    53    22    1
    41    16    15    1
    42    16     5    1
    43    15    24    1
    44    52    22    1
    45    49    20    1
    46    22     5    1
    47    22    21    1
    48     5    19    1
    49    46    19    1
    50    50    21    1
    51    20    19    1
    52    20     8    1
    53    20    48    1
    54    21     8    1
    55    21    51    1
    56    19    47    1
    57     8    32    1
