@<TRIPOS>MOLECULE
*****
   41    42     1     0     0
SMALL
bcc


@<TRIPOS>ATOM
      1 C1          -5.2200    -8.7380    -3.3040 c3         1 NDX      -0.098100
      2 N1          -4.7770    -9.6380    -0.9970 n3         1 NDX      -0.717600
      3 O1          -4.8530   -12.8350     1.7580 oh         1 NDX      -0.603800
      4 C2          -4.5000    -8.5270    -1.9550 c3         1 NDX       0.171800
      5 N2          -5.3840    -8.0760     0.7710 n7         1 NDX      -0.814200
      6 O2          -3.3570   -13.3450    -2.3270 oh         1 NDX      -0.634300
      7 C3          -4.0170   -10.8630    -1.3570 c6         1 NDX       0.159800
      8 O3          -2.5940   -13.7710    -0.1910 oh         1 NDX      -0.634300
      9 C4          -4.4640   -12.0950    -0.5250 c6         1 NDX      -0.082700
     10 C5          -4.2870   -11.7800     0.9790 c6         1 NDX       0.151100
     11 C6          -4.9810   -10.4490     1.3710 c6         1 NDX      -0.114700
     12 C7          -4.5730    -9.2790     0.4340 c6         1 NDX       0.426700
     13 C8          -5.6450    -7.8330     2.2130 c6         1 NDX       0.173500
     14 C9          -4.6150    -8.5610     3.1030 c6         1 NDX      -0.113400
     15 C10         -4.6650   -10.0870     2.8530 c6         1 NDX      -0.079400
     16 C11         -5.6470    -6.3160     2.4850 c3         1 NDX      -0.092100
     17 C12         -3.7590   -13.4280    -0.9610 c3         1 NDX       0.331900
     18 H01         -6.2910    -8.8830    -3.1440 hc         1 NDX       0.037033
     19 H02         -5.0880    -7.8580    -3.9370 hc         1 NDX       0.037033
     20 H03         -4.8280    -9.6000    -3.8450 hc         1 NDX       0.037033
     21 H04         -4.7270   -12.5880     2.6880 ho         1 NDX       0.403000
     22 H05         -4.8650    -7.5770    -1.5600 h1         1 NDX       0.040700
     23 H06         -3.4230    -8.4290    -2.1160 h1         1 NDX       0.040700
     24 H07         -4.9630    -7.2550     0.3410 hn         1 NDX       0.360800
     25 H08         -3.1140   -12.4050    -2.4780 ho         1 NDX       0.414000
     26 H09         -2.9460   -10.6920    -1.2130 h1         1 NDX       0.044700
     27 H10         -4.1950   -11.0770    -2.4120 h1         1 NDX       0.044700
     28 H11         -2.4810   -14.7520    -0.1850 ho         1 NDX       0.414000
     29 H12         -5.5330   -12.2320    -0.7130 hc         1 NDX       0.090700
     30 H13         -3.2190   -11.6980     1.1990 h1         1 NDX       0.049700
     31 H14         -6.0620   -10.5860     1.2730 hc         1 NDX       0.087700
     32 H15         -3.5100    -9.0370     0.5870 h2         1 NDX       0.015700
     33 H16         -6.6360    -8.2290     2.4530 h1         1 NDX       0.070700
     34 H17         -4.8100    -8.3570     4.1590 hc         1 NDX       0.045700
     35 H18         -3.6120    -8.1860     2.8810 hc         1 NDX       0.045700
     36 H19         -3.7060   -10.5110     3.1580 hc         1 NDX       0.039700
     37 H20         -5.4300   -10.5350     3.4920 hc         1 NDX       0.039700
     38 H21         -4.6750    -5.8780     2.2490 hc         1 NDX       0.040033
     39 H22         -6.4050    -5.8200     1.8750 hc         1 NDX       0.040033
     40 H23         -5.8710    -6.1150     3.5350 hc         1 NDX       0.040033
     41 H24         -4.4600   -14.2710    -0.8610 h2         1 NDX       0.091700
@<TRIPOS>BOND
     1    19     1 1   
     2    20     1 1   
     3     1    18 1   
     4     1     4 1   
     5    25     6 1   
     6    27     7 1   
     7    23     4 1   
     8     6    17 1   
     9     4    22 1   
    10     4     2 1   
    11     7    26 1   
    12     7     2 1   
    13     7     9 1   
    14     2    12 1   
    15    41    17 1   
    16    17     9 1   
    17    17     8 1   
    18    29     9 1   
    19     9    10 1   
    20    28     8 1   
    21    24     5 1   
    22    12    32 1   
    23    12     5 1   
    24    12    11 1   
    25     5    13 1   
    26    10    30 1   
    27    10    11 1   
    28    10     3 1   
    29    31    11 1   
    30    11    15 1   
    31    38    16 1   
    32     3    21 1   
    33    39    16 1   
    34    13    16 1   
    35    13    33 1   
    36    13    14 1   
    37    16    40 1   
    38    35    14 1   
    39    15    14 1   
    40    15    36 1   
    41    15    37 1   
    42    14    34 1   
@<TRIPOS>SUBSTRUCTURE
     1 NDX         1 TEMP              0 ****  ****    0 ROOT
