@<TRIPOS>MOLECULE
*****
   41    42     1     0     0
SMALL
bcc


@<TRIPOS>ATOM
      1 C1           4.7250   -53.6540    -3.4190 c3         1 NDX      -0.098100
      2 N1           4.6830   -52.7450    -1.0620 n3         1 NDX      -0.717600
      3 O1           5.1720   -49.5430     1.6520 oh         1 NDX      -0.603800
      4 C2           4.2450   -53.8510    -1.9650 c3         1 NDX       0.171800
      5 N2           5.3490   -54.3280     0.6680 n7         1 NDX      -0.814200
      6 O2           3.2600   -48.9970    -2.2610 oh         1 NDX      -0.634300
      7 C3           3.9730   -51.4750    -1.3710 c6         1 NDX       0.159800
      8 O3           2.9000   -48.4150    -0.0610 oh         1 NDX      -0.634300
      9 C4           4.5530   -50.2650    -0.5890 c6         1 NDX      -0.082700
     10 C5           4.4830   -50.5640     0.9280 c6         1 NDX       0.151100
     11 C6           5.1300   -51.9290     1.2740 c6         1 NDX      -0.114700
     12 C7           4.5840   -53.0800     0.3870 c6         1 NDX       0.426700
     13 C8           5.7640   -54.5490     2.0770 c6         1 NDX       0.173500
     14 C9           4.8470   -53.7860     3.0560 c6         1 NDX      -0.113400
     15 C10          4.9120   -52.2650     2.7800 c6         1 NDX      -0.079400
     16 C11          5.7760   -56.0590     2.3810 c3         1 NDX      -0.092100
     17 C12          3.8900   -48.8960    -0.9850 c3         1 NDX       0.331900
     18 H01          5.8000   -53.4620    -3.4450 hc         1 NDX       0.037033
     19 H02          4.5270   -54.5570    -4.0000 hc         1 NDX       0.037033
     20 H03          4.2090   -52.8270    -3.9080 hc         1 NDX       0.037033
     21 H04          5.1010   -49.7820     2.5900 ho         1 NDX       0.403000
     22 H05          4.6700   -54.8000    -1.6330 h1         1 NDX       0.040700
     23 H06          3.1560   -53.9440    -1.9420 h1         1 NDX       0.040700
     24 H07          4.8240   -55.1270     0.3200 hn         1 NDX       0.360800
     25 H08          2.9160   -49.9150    -2.3200 ho         1 NDX       0.414000
     26 H09          2.9080   -51.5830    -1.1430 h1         1 NDX       0.044700
     27 H10          4.0830   -51.2710    -2.4370 h1         1 NDX       0.044700
     28 H11          2.8770   -47.4280    -0.0880 ho         1 NDX       0.414000
     29 H12          5.6090   -50.1900    -0.8630 hc         1 NDX       0.090700
     30 H13          3.4330   -50.5820     1.2340 h1         1 NDX       0.049700
     31 H14          6.2060   -51.8530     1.0890 hc         1 NDX       0.087700
     32 H15          3.5260   -53.2590     0.6320 h2         1 NDX       0.015700
     33 H16          6.7800   -54.1640     2.2000 h1         1 NDX       0.070700
     34 H17          5.1400   -53.9820     4.0900 hc         1 NDX       0.045700
     35 H18          3.8170   -54.1360     2.9380 hc         1 NDX       0.045700
     36 H19          3.9850   -51.8150     3.1440 hc         1 NDX       0.039700
     37 H20          5.7280   -51.8250     3.3580 hc         1 NDX       0.039700
     38 H21          4.7780   -56.4870     2.2630 hc         1 NDX       0.040033
     39 H22          6.4560   -56.5790     1.7020 hc         1 NDX       0.040033
     40 H23          6.1120   -56.2420     3.4040 hc         1 NDX       0.040033
     41 H24          4.6620   -48.1140    -1.0490 h2         1 NDX       0.091700
@<TRIPOS>BOND
     1    19     1 1   
     2    18     1 1   
     3    20     1 1   
     4     1     4 1   
     5    27     7 1   
     6    25     6 1   
     7     6    17 1   
     8     4    23 1   
     9     4    22 1   
    10     4     2 1   
    11     7    26 1   
    12     7     2 1   
    13     7     9 1   
    14    41    17 1   
    15     2    12 1   
    16    17     9 1   
    17    17     8 1   
    18    29     9 1   
    19     9    10 1   
    20    28     8 1   
    21    24     5 1   
    22    12    32 1   
    23    12     5 1   
    24    12    11 1   
    25     5    13 1   
    26    10    30 1   
    27    10    11 1   
    28    10     3 1   
    29    31    11 1   
    30    11    15 1   
    31    39    16 1   
    32     3    21 1   
    33    38    16 1   
    34    13    16 1   
    35    13    33 1   
    36    13    14 1   
    37    16    40 1   
    38    35    14 1   
    39    15    14 1   
    40    15    36 1   
    41    15    37 1   
    42    14    34 1   
@<TRIPOS>SUBSTRUCTURE
     1 NDX         1 TEMP              0 ****  ****    0 ROOT
