@<TRIPOS>MOLECULE
*****
   41    42     1     0     0
SMALL
bcc


@<TRIPOS>ATOM
      1 C1         -24.9980     0.4290    47.8970 c3         1 NDX      -0.126100
      2 N1         -24.1040     2.1270    46.2220 n3         1 NDX      -0.724600
      3 O1         -25.4860     5.5810    44.1890 oh         1 NDX      -0.606800
      4 C2         -23.8330     0.8740    46.9860 c3         1 NDX       0.174800
      5 N2         -23.2620     3.5020    48.0460 n7         1 NDX      -0.814200
      6 O2         -26.0610     3.6740    41.9350 oh         1 NDX      -0.634800
      7 C3         -25.1270     1.9290    45.1650 c6         1 NDX       0.177800
      8 O3         -26.3970     1.5580    42.7010 oh         1 NDX      -0.634800
      9 C4         -25.2100     3.1370    44.1950 c6         1 NDX      -0.124700
     10 C5         -25.4980     4.4190    45.0260 c6         1 NDX       0.156100
     11 C6         -24.4570     4.6080    46.1590 c6         1 NDX      -0.074700
     12 C7         -24.3540     3.3410    47.0470 c6         1 NDX       0.426700
     13 C8         -23.0760     4.8670    48.6020 c6         1 NDX       0.173500
     14 C9         -24.3770     5.6930    48.5090 c6         1 NDX      -0.113400
     15 C10        -24.8190     5.8450    47.0340 c6         1 NDX      -0.076400
     16 C11        -22.5770     4.7690    50.0560 c3         1 NDX      -0.092100
     17 C12        -26.3170     2.9170    43.1150 c3         1 NDX       0.330900
     18 H01        -25.9020     0.2350    47.3180 hc         1 NDX       0.034033
     19 H02        -24.7280    -0.4930    48.4160 hc         1 NDX       0.034033
     20 H03        -25.2190     1.1860    48.6530 hc         1 NDX       0.034033
     21 H04        -26.2720     5.5530    43.6190 ho         1 NDX       0.416000
     22 H05        -23.6150     0.0690    46.2790 h1         1 NDX       0.058700
     23 H06        -22.9390     1.0070    47.6010 h1         1 NDX       0.058700
     24 H07        -23.3930     2.8250    48.7950 hn         1 NDX       0.359800
     25 H08        -26.1010     4.6160    42.1550 ho         1 NDX       0.421000
     26 H09        -26.1060     1.7680    45.6230 h1         1 NDX       0.041700
     27 H10        -24.8580     1.0350    44.5940 h1         1 NDX       0.041700
     28 H11        -26.5890     1.0360    43.4940 ho         1 NDX       0.421000
     29 H12        -24.2420     3.2420    43.6970 hc         1 NDX       0.090700
     30 H13        -26.4890     4.3220    45.4790 h1         1 NDX       0.032700
     31 H14        -23.4770     4.7790    45.7030 hc         1 NDX       0.087700
     32 H15        -25.3020     3.2080    47.5910 h2         1 NDX       0.006700
     33 H16        -22.3120     5.3770    48.0070 h1         1 NDX       0.068700
     34 H17        -24.2350     6.6820    48.9510 hc         1 NDX       0.044200
     35 H18        -25.1660     5.1940    49.0780 hc         1 NDX       0.044200
     36 H19        -25.8960     6.0250    47.0200 hc         1 NDX       0.050200
     37 H20        -24.3430     6.7290    46.6010 hc         1 NDX       0.050200
     38 H21        -22.3980     5.7650    50.4680 hc         1 NDX       0.039367
     39 H22        -23.3120     4.2620    50.6860 hc         1 NDX       0.039367
     40 H23        -21.6400     4.2100    50.1020 hc         1 NDX       0.039367
     41 H24        -27.3090     3.1990    43.4980 h2         1 NDX       0.068700
@<TRIPOS>BOND
     1     6    25 1   
     2     6    17 1   
     3     8    17 1   
     4     8    28 1   
     5    17    41 1   
     6    17     9 1   
     7    21     3 1   
     8    29     9 1   
     9     3    10 1   
    10     9    10 1   
    11     9     7 1   
    12    27     7 1   
    13    10    30 1   
    14    10    11 1   
    15     7    26 1   
    16     7     2 1   
    17    31    11 1   
    18    11    12 1   
    19    11    15 1   
    20     2     4 1   
    21     2    12 1   
    22    22     4 1   
    23    37    15 1   
    24     4    23 1   
    25     4     1 1   
    26    36    15 1   
    27    12    32 1   
    28    12     5 1   
    29    15    14 1   
    30    18     1 1   
    31     1    19 1   
    32     1    20 1   
    33     5    13 1   
    34     5    24 1   
    35    33    13 1   
    36    14    13 1   
    37    14    35 1   
    38    14    34 1   
    39    13    16 1   
    40    16    40 1   
    41    16    38 1   
    42    16    39 1   
@<TRIPOS>SUBSTRUCTURE
     1 NDX         1 TEMP              0 ****  ****    0 ROOT
