@<TRIPOS>MOLECULE
*****
 53 55 0 0 0
SMALL
GASTEIGER

@<TRIPOS>ATOM
      1  C1        10.7210    3.7751    4.7078 C.3     1  NOR1       -0.0523
      2  N1        11.6553    4.7312    6.8371 N.3     1  NOR1       -0.2987
      3  O1        11.3678    5.4497   11.0062 O.3     1  NOR1       -0.3910
      4  C2        11.7500    3.6254    5.8457 C.3     1  NOR1       -0.0036
      5  N2        16.2456    6.9014    7.0705 N.3     1  NOR1       -0.2942
      6  O2        10.0499    2.0342   10.2414 O.3     1  NOR1       -0.3668
      7  C3        10.4234    4.7151    7.6799 C.3     1  NOR1        0.0090
      8  N3        18.2786    8.4146    5.6181 N.3     1  NOR1       -0.3136
      9  O3        11.9337    1.9768    8.9109 O.3     1  NOR1       -0.3668
     10  C4        10.6165    4.1002    9.0932 C.3     1  NOR1        0.0487
     11  C5        11.8344    4.7209    9.8627 C.3     1  NOR1        0.0681
     12  C6        12.6683    5.6624    8.9535 C.3     1  NOR1        0.0038
     13  C7        13.9942    6.1460    9.6110 C.3     1  NOR1       -0.0136
     14  C8        15.2474    5.4979    8.9789 C.3     1  NOR1        0.1168
     15  C9        15.3486    5.7445    7.4301 C.3     1  NOR1        0.0430
     16  C10       13.9244    5.8110    6.7938 C.3     1  NOR1       -0.0186
     17  C11       12.9209    4.9531    7.5941 C.3     1  NOR1        0.0172
     18  C12       17.6800    6.4840    7.0465 C.3     1  NOR1        0.0119
     19  C13       18.6143    7.6972    6.8638 C.3     1  NOR1        0.0087
     20  C14       16.8671    8.8451    5.6136 C.3     1  NOR1        0.0087
     21  C15       15.9267    7.6357    5.8075 C.3     1  NOR1        0.0119
     22  C16       10.6259    2.5432    9.0431 C.3     1  NOR1        0.1595
     23  F1        16.3299    5.9239    9.6554 F       1  NOR1       -0.2439
     24  H01       10.8130    4.7552    4.2341 H       1  NOR1        0.0242
     25  H02       10.8947    3.0111    3.9470 H       1  NOR1        0.0242
     26  H03        9.6985    3.6576    5.0706 H       1  NOR1        0.0242
     27  H04       11.3480    6.4000   10.7920 H       1  NOR1        0.2098
     28  H05       12.7428    3.6308    5.3882 H       1  NOR1        0.0424
     29  H06       11.6142    2.6596    6.3378 H       1  NOR1        0.0424
     30  H07       10.0930    2.7430   10.9080 H       1  NOR1        0.2125
     31  H08        9.6003    4.2097    7.1705 H       1  NOR1        0.0432
     32  H09       10.1117    5.7540    7.8201 H       1  NOR1        0.0432
     33  H10       18.8894    9.2213    5.5054 H       1  NOR1        0.1220
     34  H11       12.2960    2.2030    8.0380 H       1  NOR1        0.2125
     35  H12        9.7075    4.3779    9.6354 H       1  NOR1        0.0387
     36  H13       12.4862    3.9243   10.2295 H       1  NOR1        0.0601
     37  H14       12.0756    6.5632    8.7665 H       1  NOR1        0.0342
     38  H15       13.9850    5.9519   10.6863 H       1  NOR1        0.0297
     39  H16       14.0722    7.2299    9.4909 H       1  NOR1        0.0297
     40  H17       15.1917    4.4195    9.1525 H       1  NOR1        0.0667
     41  H18       15.8051    4.8427    7.0107 H       1  NOR1        0.0491
     42  H19       13.9808    5.4821    5.7538 H       1  NOR1        0.0296
     43  H20       13.5380    6.8321    6.7939 H       1  NOR1        0.0296
     44  H21       13.3731    3.9765    7.7924 H       1  NOR1        0.0467
     45  H22       17.8403    5.7856    6.2196 H       1  NOR1        0.0439
     46  H23       17.9583    5.9751    7.9706 H       1  NOR1        0.0439
     47  H24       18.5080    8.3714    7.7187 H       1  NOR1        0.0437
     48  H25       19.6512    7.3543    6.8163 H       1  NOR1        0.0437
     49  H26       16.6398    9.3347    4.6630 H       1  NOR1        0.0437
     50  H27       16.7033    9.5639    6.4219 H       1  NOR1        0.0437
     51  H28       14.9117    8.0342    5.8316 H       1  NOR1        0.0439
     52  H29       16.0196    6.9605    4.9517 H       1  NOR1        0.0439
     53  H30       10.0104    2.1688    8.2107 H       1  NOR1        0.0909
@<TRIPOS>BOND
     1    25     1    1
     2    28     4    1
     3    49    20    1
     4    52    21    1
     5     1    24    1
     6     1    26    1
     7     1     4    1
     8    33     8    1
     9     8    20    1
    10     8    19    1
    11    45    18    1
    12     4    29    1
    13     4     2    1
    14    42    16    1
    15    20    21    1
    16    20    50    1
    17    21    51    1
    18    21     5    1
    19    48    19    1
    20    19    18    1
    21    19    47    1
    22    18     5    1
    23    18    46    1
    24    43    16    1
    25    16    15    1
    26    16    17    1
    27     2    17    1
    28     2     7    1
    29     5    15    1
    30    31     7    1
    31    41    15    1
    32    15    14    1
    33    17    44    1
    34    17    12    1
    35     7    32    1
    36     7    10    1
    37    34     9    1
    38    53    22    1
    39    37    12    1
    40     9    22    1
    41    12    13    1
    42    12    11    1
    43    22    10    1
    44    22     6    1
    45    14    40    1
    46    14    13    1
    47    14    23    1
    48    10    35    1
    49    10    11    1
    50    39    13    1
    51    13    38    1
    52    11    36    1
    53    11     3    1
    54     6    30    1
    55    27     3    1
