MODEL 1
REMARK VINA RESULT:    -9.183      0.000      0.000
REMARK INTER + INTRA:         -16.834
REMARK INTER:                 -15.356
REMARK INTRA:                  -1.477
REMARK UNBOUND:                -1.477
REMARK  16 active torsions:
REMARK  status: ('A' for Active; 'I' for Inactive)
REMARK    1  A    between atoms: C3_3  and  C20_33 
REMARK    2  A    between atoms: C5_7  and  N2_10 
REMARK    3  A    between atoms: C6_8  and  O1_9 
REMARK    4  A    between atoms: N2_10  and  C7_11 
REMARK    5  A    between atoms: C7_11  and  O2_12 
REMARK    6  A    between atoms: C7_11  and  C8_13 
REMARK    7  A    between atoms: C8_13  and  C9_14 
REMARK    8  A    between atoms: C8_13  and  N3_20 
REMARK    9  A    between atoms: N3_20  and  C15_21 
REMARK   10  A    between atoms: C15_21  and  O3_22 
REMARK   11  A    between atoms: C15_21  and  N4_23 
REMARK   12  A    between atoms: C18_27  and  O4_28 
REMARK   13  A    between atoms: S2_29  and  O5_30 
REMARK   14  A    between atoms: S2_29  and  O6_31 
REMARK   15  A    between atoms: C20_33  and  O7_34 
REMARK   16  A    between atoms: C20_33  and  O8_35 
ROOT
HETATM    1  C8  MEZ     1      13.591  17.246 -16.354  1.00  0.00     0.288 C 
ENDROOT
BRANCH   1   2
HETATM    2  C7  MEZ     1      14.140  15.806 -16.653  1.00  0.00     0.388 C 
BRANCH   2   3
HETATM    3  N2  MEZ     1      14.341  15.019 -15.420  1.00  0.00     0.126 N 
HETATM    4  H7  MEZ     1      14.548  15.652 -14.614  1.00  0.00     0.320 HD
BRANCH   3   5
HETATM    5  C5  MEZ     1      15.325  13.923 -15.542  1.00  0.00     0.325 A 
HETATM    6  C4  MEZ     1      16.662  14.106 -14.809  1.00  0.00     0.326 A 
HETATM    7  N1  MEZ     1      16.359  13.073 -13.811  1.00  0.00     0.146 N 
HETATM    8  S1  MEZ     1      17.010  15.722 -14.033  1.00  0.00    -0.119 SA
HETATM    9  C3  MEZ     1      16.256  13.702 -12.473  1.00  0.00     0.299 C 
HETATM   10  C6  MEZ     1      15.088  12.807 -14.529  1.00  0.00     0.395 A 
HETATM   11  C2  MEZ     1      17.237  14.906 -12.434  1.00  0.00     0.039 C 
HETATM   12  C1  MEZ     1      18.716  14.488 -12.312  1.00  0.00     0.029 C 
HETATM   13  C21 MEZ     1      16.889  15.923 -11.331  1.00  0.00     0.029 C 
BRANCH   9  14
HETATM   14  C20 MEZ     1      16.512  12.617 -11.395  1.00  0.00     0.289 C 
BRANCH  14  15
HETATM   15  O7  MEZ     1      15.405  11.754 -11.316  1.00  0.00    -0.369 OA
HETATM   16  H18 MEZ     1      15.506  11.240 -10.473  1.00  0.00     0.212 HD
ENDBRANCH  14  15
BRANCH  14  17
HETATM   17  O8  MEZ     1      16.754  13.190 -10.136  1.00  0.00    -0.369 OA
HETATM   18  H22 MEZ     1      17.107  12.469  -9.551  1.00  0.00     0.212 HD
ENDBRANCH  14  17
ENDBRANCH   9  14
BRANCH  10  19
HETATM   19  O1  MEZ     1      13.923  12.986 -13.761  1.00  0.00    -0.366 OA
HETATM   20  H2  MEZ     1      14.206  13.452 -12.931  1.00  0.00     0.212 HD
ENDBRANCH  10  19
ENDBRANCH   3   5
ENDBRANCH   2   3
BRANCH   2  21
HETATM   21  O2  MEZ     1      13.326  15.101 -17.563  1.00  0.00    -0.366 OA
HETATM   22  H4  MEZ     1      13.573  15.381 -18.482  1.00  0.00     0.212 HD
ENDBRANCH   2  21
ENDBRANCH   1   2
BRANCH   1  23
HETATM   23  C9  MEZ     1      14.552  18.166 -15.534  1.00  0.00     0.023 C 
HETATM   24  C10 MEZ     1      14.871  19.518 -16.206  1.00  0.00     0.007 C 
HETATM   25  C11 MEZ     1      16.050  20.225 -15.506  1.00  0.00     0.000 C 
HETATM   26  C12 MEZ     1      16.129  19.932 -13.993  1.00  0.00     0.000 C 
HETATM   27  C13 MEZ     1      14.750  19.614 -13.399  1.00  0.00     0.000 C 
HETATM   28  C14 MEZ     1      14.114  18.371 -14.056  1.00  0.00     0.007 C 
ENDBRANCH   1  23
BRANCH   1  29
HETATM   29  N3  MEZ     1      13.240  17.958 -17.607  1.00  0.00     0.152 N 
HETATM   30  H14 MEZ     1      13.465  17.410 -18.470  1.00  0.00     0.322 HD
BRANCH  29  31
HETATM   31  C15 MEZ     1      11.828  18.374 -17.659  1.00  0.00     0.600 C 
BRANCH  31  32
HETATM   32  O3  MEZ     1      11.007  17.230 -17.694  1.00  0.00    -0.345 OA
HETATM   33  H12 MEZ     1      11.141  16.744 -16.840  1.00  0.00     0.214 HD
ENDBRANCH  31  32
BRANCH  31  34
HETATM   34  N4  MEZ     1      11.601  19.164 -18.887  1.00  0.00     0.198 N 
HETATM   35  C16 MEZ     1      12.502  20.304 -19.007  1.00  0.00     0.304 C 
HETATM   36  C17 MEZ     1      11.762  21.306 -19.867  1.00  0.00     0.168 C 
HETATM   37  N5  MEZ     1      10.353  20.932 -19.849  1.00  0.00    -0.280 N 
HETATM   38  C18 MEZ     1      10.254  19.746 -19.006  1.00  0.00     0.480 C 
HETATM   39  S2  MEZ     1       9.613  21.953 -20.521  1.00  0.00     0.045 S 
HETATM   40  C19 MEZ     1       9.122  20.410 -22.208  1.00  0.00     0.150 C 
BRANCH  38  41
HETATM   41  O4  MEZ     1       9.735  20.132 -17.756  1.00  0.00    -0.352 OA
HETATM   42  H14 MEZ     1      10.084  21.042 -17.565  1.00  0.00     0.214 HD
ENDBRANCH  38  41
BRANCH  39  43
HETATM   43  O5  MEZ     1       7.193  21.314 -19.755  1.00  0.00    -0.312 OA
HETATM   44  H15 MEZ     1       6.893  22.003 -19.109  1.00  0.00     0.230 HD
ENDBRANCH  39  43
BRANCH  39  45
HETATM   45  O6  MEZ     1       8.750  22.920 -19.317  1.00  0.00    -0.312 OA
HETATM   46  H16 MEZ     1       7.974  23.475 -19.582  1.00  0.00     0.230 HD
ENDBRANCH  39  45
ENDBRANCH  31  34
ENDBRANCH  29  31
ENDBRANCH   1  29
TORSDOF 16
ENDMDL
