MODEL 1
REMARK VINA RESULT:    -8.294      0.000      0.000
REMARK INTER + INTRA:         -18.605
REMARK INTER:                 -15.810
REMARK INTRA:                  -2.795
REMARK UNBOUND:                -2.795
REMARK  22 active torsions:
REMARK  status: ('A' for Active; 'I' for Inactive)
REMARK    1  A    between atoms: C2_2  and  N6_42 
REMARK    2  A    between atoms: C3_3  and  O13_41 
REMARK    3  A    between atoms: C4_4  and  O5_20 
REMARK    4  A    between atoms: C5_5  and  O1_8 
REMARK    5  A    between atoms: C6_6  and  N1_7 
REMARK    6  A    between atoms: O1_8  and  C7_9 
REMARK    7  A    between atoms: C8_10  and  N3_19 
REMARK    8  A    between atoms: C9_11  and  O4_18 
REMARK    9  A    between atoms: C10_12  and  O3_17 
REMARK   10  A    between atoms: C11_13  and  C12_15 
REMARK   11  A    between atoms: C12_15  and  N2_16 
REMARK   12  A    between atoms: O5_20  and  C13_21 
REMARK   13  A    between atoms: C14_22  and  O12_40 
REMARK   14  A    between atoms: C15_23  and  O8_28 
REMARK   15  A    between atoms: C16_24  and  C17_26 
REMARK   16  A    between atoms: C17_26  and  O7_27 
REMARK   17  A    between atoms: O8_28  and  C18_29 
REMARK   18  A    between atoms: C19_30  and  N5_39 
REMARK   19  A    between atoms: C20_31  and  O11_38 
REMARK   20  A    between atoms: C21_32  and  O10_37 
REMARK   21  A    between atoms: C22_33  and  C23_35 
REMARK   22  A    between atoms: C23_35  and  N4_36 
ROOT
HETATM    1  C1  NEO     1      16.122  19.344 -11.215  1.00  0.00     0.076 C 
HETATM    2  C2  NEO     1      15.078  20.235 -11.905  1.00  0.00     0.251 C 
HETATM    3  C3  NEO     1      15.054  19.966 -13.426  1.00  0.00     0.182 C 
HETATM    4  C4  NEO     1      14.774  18.475 -13.708  1.00  0.00     0.186 C 
HETATM    5  C5  NEO     1      15.830  17.573 -13.031  1.00  0.00     0.189 C 
HETATM    6  C6  NEO     1      15.863  17.850 -11.501  1.00  0.00     0.251 C 
ENDROOT
BRANCH   4   7
HETATM    7  O5  NEO     1      14.814  18.257 -15.112  1.00  0.00    -0.348 OA
BRANCH   7   8
HETATM    8  C13 NEO     1      13.622  18.684 -15.749  1.00  0.00     0.292 C 
HETATM    9  C14 NEO     1      13.924  19.098 -17.181  1.00  0.00     0.205 C 
HETATM   10  C15 NEO     1      12.602  18.854 -17.872  1.00  0.00     0.189 C 
HETATM   11  C16 NEO     1      12.036  17.686 -17.050  1.00  0.00     0.180 C 
HETATM   12  O6  NEO     1      12.705  17.614 -15.805  1.00  0.00    -0.348 OA
BRANCH   9  13
HETATM   13  O12 NEO     1      14.388  20.423 -17.304  1.00  0.00    -0.388 OA
HETATM   14  H43 NEO     1      13.694  21.042 -16.958  1.00  0.00     0.210 HD
ENDBRANCH   9  13
BRANCH  10  15
HETATM   15  O8  NEO     1      11.738  19.971 -17.708  1.00  0.00    -0.348 OA
BRANCH  15  16
HETATM   16  C18 NEO     1      11.220  20.414 -18.945  1.00  0.00     0.296 C 
HETATM   17  C19 NEO     1      12.110  21.568 -19.465  1.00  0.00     0.303 C 
HETATM   18  C20 NEO     1      11.519  22.164 -20.763  1.00  0.00     0.187 C 
HETATM   19  C21 NEO     1      10.005  22.432 -20.623  1.00  0.00     0.179 C 
HETATM   20  C22 NEO     1       9.302  21.194 -20.015  1.00  0.00     0.183 C 
HETATM   21  O9  NEO     1       9.887  20.866 -18.766  1.00  0.00    -0.349 OA
BRANCH  17  22
HETATM   22  N5  NEO     1      12.292  22.617 -18.454  1.00  0.00     0.090 N 
HETATM   23  H41 NEO     1      12.274  23.561 -18.902  1.00  0.00     0.313 HD
HETATM   24  H42 NEO     1      11.488  22.581 -17.784  1.00  0.00     0.313 HD
ENDBRANCH  17  22
BRANCH  18  25
HETATM   25  O11 NEO     1      11.729  21.279 -21.833  1.00  0.00    -0.391 OA
HETATM   26  H40 NEO     1      11.300  20.418 -21.586  1.00  0.00     0.210 HD
ENDBRANCH  18  25
BRANCH  19  27
HETATM   27  O10 NEO     1       9.780  23.557 -19.813  1.00  0.00    -0.390 OA
HETATM   28  H39 NEO     1       9.411  24.265 -20.401  1.00  0.00     0.210 HD
ENDBRANCH  19  27
BRANCH  20  29
HETATM   29  C23 NEO     1       7.791  21.423 -19.795  1.00  0.00     0.301 C 
BRANCH  29  30
HETATM   30  N4  NEO     1       7.476  21.852 -18.434  1.00  0.00     0.080 N 
HETATM   31  H37 NEO     1       8.353  21.871 -17.866  1.00  0.00     0.312 HD
HETATM   32  H38 NEO     1       7.072  22.816 -18.453  1.00  0.00     0.312 HD
ENDBRANCH  29  30
ENDBRANCH  20  29
ENDBRANCH  15  16
ENDBRANCH  10  15
BRANCH  11  33
HETATM   33  C17 NEO     1      12.157  16.337 -17.783  1.00  0.00     0.198 C 
BRANCH  33  34
HETATM   34  O7  NEO     1      12.260  15.274 -16.872  1.00  0.00    -0.398 OA
HETATM   35  H29 NEO     1      11.649  15.478 -16.118  1.00  0.00     0.209 HD
ENDBRANCH  33  34
ENDBRANCH  11  33
ENDBRANCH   7   8
ENDBRANCH   4   7
BRANCH   3  36
HETATM   36  O13 NEO     1      14.050  20.754 -14.015  1.00  0.00    -0.391 OA
HETATM   37  H44 NEO     1      13.938  21.559 -13.445  1.00  0.00     0.210 HD
ENDBRANCH   3  36
BRANCH   5  38
HETATM   38  O1  NEO     1      15.449  16.230 -13.282  1.00  0.00    -0.349 OA
BRANCH  38  39
HETATM   39  C7  NEO     1      16.447  15.472 -13.959  1.00  0.00     0.296 C 
HETATM   40  C8  NEO     1      15.816  14.652 -15.100  1.00  0.00     0.303 C 
HETATM   41  C9  NEO     1      14.858  13.597 -14.513  1.00  0.00     0.187 C 
HETATM   42  C10 NEO     1      15.556  12.776 -13.409  1.00  0.00     0.179 C 
HETATM   43  C11 NEO     1      16.229  13.728 -12.386  1.00  0.00     0.183 C 
HETATM   44  O2  NEO     1      17.121  14.613 -13.053  1.00  0.00    -0.349 OA
BRANCH  40  45
HETATM   45  N3  NEO     1      15.102  15.536 -16.024  1.00  0.00     0.090 N 
HETATM   46  H21 NEO     1      14.260  15.919 -15.534  1.00  0.00     0.313 HD
HETATM   47  H22 NEO     1      15.713  16.361 -16.224  1.00  0.00     0.313 HD
ENDBRANCH  40  45
BRANCH  41  48
HETATM   48  O4  NEO     1      14.360  12.754 -15.524  1.00  0.00    -0.391 OA
HETATM   49  H20 NEO     1      14.243  13.303 -16.343  1.00  0.00     0.210 HD
ENDBRANCH  41  48
BRANCH  42  50
HETATM   50  O3  NEO     1      14.601  11.973 -12.765  1.00  0.00    -0.390 OA
HETATM   51  H19 NEO     1      14.020  11.590 -13.474  1.00  0.00     0.210 HD
ENDBRANCH  42  50
BRANCH  43  52
HETATM   52  C12 NEO     1      17.060  12.955 -11.334  1.00  0.00     0.301 C 
BRANCH  52  53
HETATM   53  N2  NEO     1      17.309  13.723 -10.113  1.00  0.00     0.080 N 
HETATM   54  H17 NEO     1      16.818  14.642 -10.168  1.00  0.00     0.312 HD
HETATM   55  H18 NEO     1      18.334  13.897 -10.000  1.00  0.00     0.312 HD
ENDBRANCH  52  53
ENDBRANCH  43  52
ENDBRANCH  38  39
ENDBRANCH   5  38
BRANCH   2  56
HETATM   56  N6  NEO     1      15.377  21.642 -11.618  1.00  0.00     0.085 N 
HETATM   57  H45 NEO     1      14.700  22.001 -10.906  1.00  0.00     0.313 HD
HETATM   58  H46 NEO     1      16.336  21.713 -11.203  1.00  0.00     0.313 HD
ENDBRANCH   2  56
BRANCH   6  59
HETATM   59  N1  NEO     1      16.884  17.030 -10.843  1.00  0.00     0.085 N 
HETATM   60  H8  NEO     1      16.466  16.563 -10.006  1.00  0.00     0.313 HD
HETATM   61  H9  NEO     1      17.193  16.278 -11.502  1.00  0.00     0.313 HD
ENDBRANCH   6  59
TORSDOF 22
ENDMDL
