MODEL 1
REMARK VINA RESULT:    -7.709      0.000      0.000
REMARK INTER + INTRA:         -10.400
REMARK INTER:                  -9.737
REMARK INTRA:                  -0.663
REMARK UNBOUND:                -0.663
REMARK  6 active torsions:
REMARK  status: ('A' for Active; 'I' for Inactive)
REMARK    1  A    between atoms: C2_2  and  N1_3 
REMARK    2  A    between atoms: C4_5  and  C16_21 
REMARK    3  A    between atoms: C5_6  and  O1_7 
REMARK    4  A    between atoms: C9_11  and  N2_14 
REMARK    5  A    between atoms: C16_21  and  O2_22 
REMARK    6  A    between atoms: C16_21  and  O3_23 
ROOT
HETATM    1  N1  NOR     1      16.920  15.218 -13.835  1.00  0.00     0.093 N 
HETATM    2  C3  NOR     1      17.195  14.003 -14.649  1.00  0.00     0.284 C 
HETATM    3  C4  NOR     1      15.930  13.231 -15.126  1.00  0.00     0.098 C 
HETATM    4  C5  NOR     1      14.839  14.157 -15.761  1.00  0.00     0.135 C 
HETATM    5  C6  NOR     1      15.190  15.648 -15.596  1.00  0.00     0.051 C 
HETATM    6  C7  NOR     1      14.043  16.592 -16.062  1.00  0.00     0.049 C 
HETATM    7  C8  NOR     1      13.356  17.353 -14.912  1.00  0.00     0.204 C 
HETATM    8  C9  NOR     1      14.354  18.081 -13.959  1.00  0.00     0.258 C 
HETATM    9  C10 NOR     1      15.759  17.414 -13.915  1.00  0.00     0.075 C 
HETATM   10  C11 NOR     1      15.634  15.897 -14.134  1.00  0.00     0.231 C 
HETATM   11  F1  NOR     1      12.419  18.236 -15.423  1.00  0.00    -0.247 F 
ENDROOT
BRANCH   8  12
HETATM   12  N2  NOR     1      14.384  19.555 -14.174  1.00  0.00     0.099 N 
HETATM   13  C12 NOR     1      14.667  20.295 -12.929  1.00  0.00     0.302 C 
HETATM   14  C13 NOR     1      14.463  21.798 -13.159  1.00  0.00     0.299 C 
HETATM   15  N3  NOR     1      15.308  22.286 -14.256  1.00  0.00     0.086 N 
HETATM   16  C14 NOR     1      15.055  21.525 -15.487  1.00  0.00     0.299 C 
HETATM   17  H13 NOR     1      16.313  22.167 -13.986  1.00  0.00     0.315 HD
HETATM   18  C15 NOR     1      15.268  20.023 -15.262  1.00  0.00     0.302 C 
ENDBRANCH   8  12
BRANCH   1  19
HETATM   19  C2  NOR     1      17.133  14.988 -12.388  1.00  0.00     0.268 C 
HETATM   20  C1  NOR     1      18.224  13.943 -12.189  1.00  0.00     0.037 C 
ENDBRANCH   1  19
BRANCH   4  21
HETATM   21  O1  NOR     1      14.705  13.869 -17.130  1.00  0.00    -0.395 OA
HETATM   22  H4  NOR     1      14.388  14.703 -17.567  1.00  0.00     0.210 HD
ENDBRANCH   4  21
BRANCH   3  23
HETATM   23  C16 NOR     1      15.357  12.293 -14.032  1.00  0.00     0.262 C 
BRANCH  23  24
HETATM   24  O2  NOR     1      14.817  11.140 -14.626  1.00  0.00    -0.371 OA
HETATM   25  H12 NOR     1      13.838  11.163 -14.461  1.00  0.00     0.212 HD
ENDBRANCH  23  24
BRANCH  23  26
HETATM   26  O3  NOR     1      14.351  12.942 -13.302  1.00  0.00    -0.371 OA
HETATM   27  H18 NOR     1      13.643  12.266 -13.138  1.00  0.00     0.212 HD
ENDBRANCH  23  26
ENDBRANCH   3  23
TORSDOF 6
ENDMDL
