MODEL 1
REMARK VINA RESULT:    -8.143      0.000      0.000
REMARK INTER + INTRA:         -17.866
REMARK INTER:                 -14.331
REMARK INTRA:                  -3.535
REMARK UNBOUND:                -3.535
REMARK  17 active torsions:
REMARK  status: ('A' for Active; 'I' for Inactive)
REMARK    1  A    between atoms: C3_3  and  C21_38 
REMARK    2  A    between atoms: C3_3  and  O12_40 
REMARK    3  A    between atoms: C4_4  and  O6_25 
REMARK    4  A    between atoms: C5_5  and  O2_7 
REMARK    5  A    between atoms: O2_7  and  C6_8 
REMARK    6  A    between atoms: C7_9  and  N4_21 
REMARK    7  A    between atoms: C8_10  and  O5_20 
REMARK    8  A    between atoms: C9_11  and  N1_16 
REMARK    9  A    between atoms: C10_12  and  O4_15 
REMARK   10  A    between atoms: C11_13  and  O3_14 
REMARK       I    between atoms: N1_16  and  C12_17 
REMARK       I    between atoms: C12_17  and  N2_18 
REMARK       I    between atoms: C12_17  and  N3_19 
REMARK       I    between atoms: N4_21  and  C13_22 
REMARK       I    between atoms: C13_22  and  N5_23 
REMARK       I    between atoms: C13_22  and  N6_24 
REMARK   11  A    between atoms: O6_25  and  C14_26 
REMARK   12  A    between atoms: C15_27  and  N7_36 
REMARK   13  A    between atoms: C16_28  and  O10_35 
REMARK   14  A    between atoms: C17_29  and  O9_34 
REMARK   15  A    between atoms: C18_30  and  C19_32 
REMARK   16  A    between atoms: C19_32  and  O8_33 
REMARK   17  A    between atoms: C21_38  and  O11_39 
ROOT
HETATM    1  C6  STM     1      16.468  20.348 -14.449  1.00  0.00     0.192 C 
HETATM    2  C7  STM     1      17.732  20.937 -15.134  1.00  0.00     0.287 C 
HETATM    3  C8  STM     1      17.421  21.430 -16.574  1.00  0.00     0.190 C 
HETATM    4  C9  STM     1      16.247  22.453 -16.557  1.00  0.00     0.287 C 
HETATM    5  C10 STM     1      14.991  21.886 -15.846  1.00  0.00     0.185 C 
HETATM    6  C11 STM     1      15.340  21.410 -14.420  1.00  0.00     0.180 C 
ENDROOT
BRANCH   1   7
HETATM    7  O2  STM     1      16.820  19.963 -13.126  1.00  0.00    -0.348 OA
BRANCH   7   8
HETATM    8  C5  STM     1      15.946  18.982 -12.581  1.00  0.00     0.293 C 
HETATM    9  C4  STM     1      16.459  17.585 -12.935  1.00  0.00     0.218 C 
HETATM   10  C3  STM     1      17.341  17.213 -11.737  1.00  0.00     0.135 C 
HETATM   11  C2  STM     1      16.964  18.289 -10.676  1.00  0.00     0.160 C 
HETATM   12  C1  STM     1      16.506  17.725  -9.326  1.00  0.00     0.043 C 
HETATM   13  O1  STM     1      15.935  19.102 -11.182  1.00  0.00    -0.350 OA
BRANCH   9  14
HETATM   14  O6  STM     1      15.362  16.685 -13.046  1.00  0.00    -0.346 OA
BRANCH  14  15
HETATM   15  C14 STM     1      15.291  16.076 -14.333  1.00  0.00     0.297 C 
HETATM   16  C15 STM     1      15.956  14.667 -14.296  1.00  0.00     0.305 C 
HETATM   17  C16 STM     1      15.571  13.810 -15.536  1.00  0.00     0.187 C 
HETATM   18  C17 STM     1      14.948  14.690 -16.645  1.00  0.00     0.180 C 
HETATM   19  C18 STM     1      13.778  15.561 -16.076  1.00  0.00     0.179 C 
HETATM   20  O7  STM     1      13.933  15.956 -14.709  1.00  0.00    -0.349 OA
BRANCH  16  21
HETATM   21  N7  STM     1      15.713  13.916 -13.034  1.00  0.00     0.091 N 
HETATM   22  C20 STM     1      14.866  12.719 -13.173  1.00  0.00     0.307 C 
HETATM   23  H34 STM     1      15.258  14.554 -12.344  1.00  0.00     0.316 HD
ENDBRANCH  16  21
BRANCH  17  24
HETATM   24  O10 STM     1      16.719  13.161 -16.024  1.00  0.00    -0.391 OA
HETATM   25  H33 STM     1      17.399  13.863 -16.195  1.00  0.00     0.210 HD
ENDBRANCH  17  24
BRANCH  18  26
HETATM   26  O9  STM     1      14.503  13.913 -17.730  1.00  0.00    -0.390 OA
HETATM   27  H32 STM     1      15.280  13.717 -18.310  1.00  0.00     0.210 HD
ENDBRANCH  18  26
BRANCH  19  28
HETATM   28  C19 STM     1      13.527  16.802 -16.954  1.00  0.00     0.198 C 
BRANCH  28  29
HETATM   29  O8  STM     1      12.658  16.486 -18.008  1.00  0.00    -0.398 OA
HETATM   30  H31 STM     1      12.151  15.671 -17.739  1.00  0.00     0.209 HD
ENDBRANCH  28  29
ENDBRANCH  19  28
ENDBRANCH  14  15
ENDBRANCH   9  14
BRANCH  10  31
HETATM   31  C21 STM     1      18.849  17.282 -12.103  1.00  0.00     0.207 C 
BRANCH  31  32
HETATM   32  O11 STM     1      19.033  17.652 -13.443  1.00  0.00    -0.398 OA
HETATM   33  H6  STM     1      18.543  16.973 -13.982  1.00  0.00     0.209 HD
ENDBRANCH  31  32
ENDBRANCH  10  31
BRANCH  10  34
HETATM   34  O12 STM     1      17.031  15.898 -11.316  1.00  0.00    -0.382 OA
HETATM   35  H39 STM     1      16.191  15.926 -10.796  1.00  0.00     0.210 HD
ENDBRANCH  10  34
ENDBRANCH   7   8
ENDBRANCH   1   7
BRANCH   2  36
HETATM   36  N4  STM     1      18.899  20.022 -15.052  1.00  0.00     0.156 N 
HETATM   37  C13 STM     1      20.116  20.551 -14.410  1.00  0.00     0.674 C 
HETATM   38  N5  STM     1      21.267  19.741 -14.828  1.00  0.00     0.142 N 
HETATM   39  N6  STM     1      19.986  20.518 -12.947  1.00  0.00     0.142 N 
HETATM   40  H20 STM     1      22.145  20.226 -14.522  1.00  0.00     0.318 HD
HETATM   41  H21 STM     1      21.292  19.712 -15.875  1.00  0.00     0.318 HD
HETATM   42  H22 STM     1      20.401  21.404 -12.553  1.00  0.00     0.318 HD
HETATM   43  H23 STM     1      20.533  19.719 -12.538  1.00  0.00     0.318 HD
HETATM   44  H3  STM     1      18.617  19.134 -14.573  1.00  0.00     0.321 HD
ENDBRANCH   2  36
BRANCH   6  45
HETATM   45  O3  STM     1      14.190  20.859 -13.833  1.00  0.00    -0.390 OA
HETATM   46  H13 STM     1      14.360  20.816 -12.858  1.00  0.00     0.210 HD
ENDBRANCH   6  45
BRANCH   3  47
HETATM   47  O5  STM     1      18.567  22.011 -17.151  1.00  0.00    -0.391 OA
HETATM   48  H19 STM     1      18.719  21.582 -18.035  1.00  0.00     0.210 HD
ENDBRANCH   3  47
BRANCH   5  49
HETATM   49  O4  STM     1      13.995  22.874 -15.757  1.00  0.00    -0.391 OA
HETATM   50  H14 STM     1      13.703  22.912 -14.805  1.00  0.00     0.210 HD
ENDBRANCH   5  49
BRANCH   4  51
HETATM   51  N1  STM     1      15.906  23.031 -17.881  1.00  0.00     0.156 N 
HETATM   52  C12 STM     1      16.076  24.482 -18.121  1.00  0.00     0.674 C 
HETATM   53  N2  STM     1      17.373  24.963 -17.646  1.00  0.00     0.142 N 
HETATM   54  N3  STM     1      14.996  25.253 -17.509  1.00  0.00     0.142 N 
HETATM   55  H15 STM     1      17.437  25.994 -17.836  1.00  0.00     0.318 HD
HETATM   56  H16 STM     1      18.122  24.529 -18.238  1.00  0.00     0.318 HD
HETATM   57  H17 STM     1      15.105  26.251 -17.789  1.00  0.00     0.318 HD
HETATM   58  H18 STM     1      14.092  24.943 -17.935  1.00  0.00     0.318 HD
HETATM   59  H1  STM     1      14.934  22.749 -18.145  1.00  0.00     0.321 HD
ENDBRANCH   4  51
TORSDOF 17
ENDMDL
