MODEL 1
REMARK VINA RESULT:    -7.698      0.000      0.000
REMARK INTER + INTRA:         -14.716
REMARK INTER:                 -12.649
REMARK INTRA:                  -2.067
REMARK UNBOUND:                -2.067
REMARK  16 active torsions:
REMARK  status: ('A' for Active; 'I' for Inactive)
REMARK    1  A    between atoms: C2_2  and  N5_32 
REMARK    2  A    between atoms: C3_3  and  O7_21 
REMARK    3  A    between atoms: C4_4  and  O6_20 
REMARK    4  A    between atoms: C5_5  and  O1_8 
REMARK    5  A    between atoms: C6_6  and  N1_7 
REMARK    6  A    between atoms: O1_8  and  C7_9 
REMARK    7  A    between atoms: C8_10  and  O5_19 
REMARK    8  A    between atoms: C9_11  and  N2_18 
REMARK    9  A    between atoms: C10_12  and  O4_17 
REMARK   10  A    between atoms: C11_13  and  C12_15 
REMARK   11  A    between atoms: C12_15  and  O3_16 
REMARK   12  A    between atoms: O7_21  and  C13_22 
REMARK   13  A    between atoms: C14_23  and  N4_31 
REMARK   14  A    between atoms: C16_25  and  O9_30 
REMARK   15  A    between atoms: C17_26  and  C18_28 
REMARK   16  A    between atoms: C18_28  and  N3_29 
ROOT
HETATM    1  C1  TOB     1      15.085  12.624 -12.500  1.00  0.00     0.076 C 
HETATM    2  C2  TOB     1      14.622  12.551 -13.974  1.00  0.00     0.251 C 
HETATM    3  C3  TOB     1      15.100  13.757 -14.825  1.00  0.00     0.189 C 
HETATM    4  C4  TOB     1      16.606  14.048 -14.644  1.00  0.00     0.180 C 
HETATM    5  C5  TOB     1      17.005  14.229 -13.151  1.00  0.00     0.189 C 
HETATM    6  C6  TOB     1      16.558  13.043 -12.267  1.00  0.00     0.251 C 
ENDROOT
BRANCH   5   7
HETATM    7  O1  TOB     1      16.424  15.412 -12.621  1.00  0.00    -0.348 OA
BRANCH   7   8
HETATM    8  C7  TOB     1      16.942  15.764 -11.346  1.00  0.00     0.291 C 
HETATM    9  C8  TOB     1      16.238  17.054 -10.854  1.00  0.00     0.208 C 
HETATM   10  C9  TOB     1      17.075  17.796  -9.772  1.00  0.00     0.282 C 
HETATM   11  C10 TOB     1      18.094  16.843  -9.124  1.00  0.00     0.184 C 
HETATM   12  C11 TOB     1      18.991  16.227 -10.237  1.00  0.00     0.179 C 
HETATM   13  O2  TOB     1      18.334  15.990 -11.480  1.00  0.00    -0.349 OA
BRANCH   9  14
HETATM   14  O5  TOB     1      15.951  17.923 -11.923  1.00  0.00    -0.388 OA
HETATM   15  H21 TOB     1      16.811  18.150 -12.364  1.00  0.00     0.210 HD
ENDBRANCH   9  14
BRANCH  10  16
HETATM   16  N2  TOB     1      16.211  18.395  -8.751  1.00  0.00     0.088 N 
HETATM   17  H19 TOB     1      15.638  19.148  -9.199  1.00  0.00     0.313 HD
HETATM   18  H20 TOB     1      15.550  17.672  -8.385  1.00  0.00     0.313 HD
ENDBRANCH  10  16
BRANCH  11  19
HETATM   19  O4  TOB     1      18.902  17.543  -8.211  1.00  0.00    -0.391 OA
HETATM   20  H18 TOB     1      18.979  16.978  -7.398  1.00  0.00     0.210 HD
ENDBRANCH  11  19
BRANCH  12  21
HETATM   21  C12 TOB     1      19.733  14.965  -9.771  1.00  0.00     0.198 C 
BRANCH  21  22
HETATM   22  O3  TOB     1      19.534  13.897 -10.658  1.00  0.00    -0.398 OA
HETATM   23  H17 TOB     1      18.555  13.818 -10.805  1.00  0.00     0.209 HD
ENDBRANCH  21  22
ENDBRANCH  12  21
ENDBRANCH   7   8
ENDBRANCH   5   7
BRANCH   4  24
HETATM   24  O6  TOB     1      17.373  13.042 -15.252  1.00  0.00    -0.390 OA
HETATM   25  H22 TOB     1      17.592  12.378 -14.546  1.00  0.00     0.210 HD
ENDBRANCH   4  24
BRANCH   6  26
HETATM   26  N1  TOB     1      17.497  11.918 -12.344  1.00  0.00     0.085 N 
HETATM   27  H8  TOB     1      18.449  12.238 -12.051  1.00  0.00     0.313 HD
HETATM   28  H9  TOB     1      17.215  11.139 -11.716  1.00  0.00     0.313 HD
ENDBRANCH   6  26
BRANCH   3  29
HETATM   29  O7  TOB     1      14.381  14.933 -14.472  1.00  0.00    -0.349 OA
BRANCH  29  30
HETATM   30  C13 TOB     1      13.775  15.576 -15.586  1.00  0.00     0.293 C 
HETATM   31  C14 TOB     1      14.584  16.845 -15.953  1.00  0.00     0.275 C 
HETATM   32  C15 TOB     1      13.715  17.853 -16.747  1.00  0.00     0.074 C 
HETATM   33  C16 TOB     1      12.533  17.156 -17.433  1.00  0.00     0.151 C 
HETATM   34  C17 TOB     1      11.697  16.373 -16.373  1.00  0.00     0.181 C 
HETATM   35  O8  TOB     1      12.454  15.954 -15.239  1.00  0.00    -0.349 OA
BRANCH  31  36
HETATM   36  N4  TOB     1      15.140  17.477 -14.754  1.00  0.00     0.087 N 
HETATM   37  H34 TOB     1      15.726  18.294 -15.045  1.00  0.00     0.313 HD
HETATM   38  H35 TOB     1      14.361  17.839 -14.156  1.00  0.00     0.313 HD
ENDBRANCH  31  36
BRANCH  33  39
HETATM   39  O9  TOB     1      11.723  18.112 -18.068  1.00  0.00    -0.393 OA
HETATM   40  H33 TOB     1      11.572  17.790 -18.995  1.00  0.00     0.210 HD
ENDBRANCH  33  39
BRANCH  34  41
HETATM   41  C18 TOB     1      10.950  15.161 -16.974  1.00  0.00     0.301 C 
BRANCH  41  42
HETATM   42  N3  TOB     1      11.459  14.786 -18.293  1.00  0.00     0.080 N 
HETATM   43  H31 TOB     1      12.365  15.278 -18.469  1.00  0.00     0.312 HD
HETATM   44  H32 TOB     1      11.635  13.756 -18.314  1.00  0.00     0.312 HD
ENDBRANCH  41  42
ENDBRANCH  34  41
ENDBRANCH  29  30
ENDBRANCH   3  29
BRANCH   2  45
HETATM   45  N5  TOB     1      14.946  11.272 -14.616  1.00  0.00     0.085 N 
HETATM   46  H36 TOB     1      15.835  10.877 -14.250  1.00  0.00     0.313 HD
HETATM   47  H37 TOB     1      14.188  10.583 -14.406  1.00  0.00     0.313 HD
ENDBRANCH   2  45
TORSDOF 16
ENDMDL
